<?xml version="1.0" encoding="UTF-8"?>

<!-- generated on 2026-05-20T02:49:23.923756+03:00 by Eclipse SUMO netconvert 1.26.0
<netconvertConfiguration xmlns:xsi="http://www.w3.org/2001/XMLSchema-instance" xsi:noNamespaceSchemaLocation="http://sumo.dlr.de/xsd/netconvertConfiguration.xsd">

    <input>
        <sumo-net-file value=".\map.net.xml"/>
    </input>

    <output>
        <plain-output-prefix value="check"/>
    </output>

    <processing>
        <geometry.min-radius.fix.railways value="false"/>
        <geometry.avoid-overlap value="false"/>
        <geometry.max-grade.fix value="false"/>
        <offset.disable-normalization value="true"/>
        <lefthand value="0"/>
    </processing>

    <junctions>
        <no-turnarounds value="true"/>
        <junctions.corner-detail value="5"/>
        <junctions.limit-turn-speed value="5.50"/>
        <rectangular-lane-cut value="0"/>
    </junctions>

    <pedestrian>
        <walkingareas value="0"/>
    </pedestrian>

</netconvertConfiguration>
-->

<nodes version="1.20" xmlns:xsi="http://www.w3.org/2001/XMLSchema-instance" xsi:noNamespaceSchemaLocation="http://sumo.dlr.de/xsd/nodes_file.xsd">
    <location netOffset="-642888.13,-4537717.81" convBoundary="0.00,0.00,2689.02,1359.24" origBoundary="28.626236,40.977900,28.797545,41.029922" projParameter="+proj=utm +zone=35 +ellps=WGS84 +datum=WGS84 +units=m +no_defs"/>

    <node id="10067289163" x="1990.07" y="1222.57" type="traffic_light" tl="10067289163"/>
    <node id="10067289185" x="2009.79" y="932.86" type="priority"/>
    <node id="10168930299" x="2075.87" y="1013.43" type="dead_end"/>
    <node id="10168930300" x="2098.54" y="1030.32" type="dead_end"/>
    <node id="10168930301" x="2085.59" y="1045.35" type="dead_end"/>
    <node id="10168930303" x="2083.74" y="1002.51" type="dead_end"/>
    <node id="10168930306" x="2085.69" y="968.99" type="dead_end"/>
    <node id="10168930307" x="2076.32" y="936.75" type="dead_end"/>
    <node id="10168930311" x="2017.69" y="901.30" type="dead_end"/>
    <node id="10168930312" x="1993.27" y="917.25" type="dead_end"/>
    <node id="10168930315" x="1944.15" y="972.67" type="dead_end"/>
    <node id="10168930316" x="1950.60" y="987.80" type="dead_end"/>
    <node id="10168945617" x="1932.28" y="1009.71" type="dead_end"/>
    <node id="10168945624" x="1948.73" y="1026.96" type="dead_end"/>
    <node id="10168945629" x="2032.47" y="571.69" type="dead_end"/>
    <node id="10168945630" x="2041.38" y="574.73" type="dead_end"/>
    <node id="1064912577" x="1957.70" y="1112.95" type="dead_end"/>
    <node id="1064912589" x="1835.39" y="1005.55" type="priority"/>
    <node id="1064912607" x="1841.90" y="603.00" type="priority"/>
    <node id="1064912617" x="2022.61" y="566.29" type="priority"/>
    <node id="1064912619" x="1940.04" y="582.37" type="priority"/>
    <node id="1064912620" x="2033.31" y="563.71" type="priority"/>
    <node id="1064912621" x="2314.84" y="487.87" type="dead_end"/>
    <node id="1064912640" x="2232.72" y="728.80" type="dead_end"/>
    <node id="1064912788" x="1982.14" y="912.27" type="priority"/>
    <node id="10723144880" x="884.13" y="397.21" type="priority"/>
    <node id="10727641887" x="991.95" y="333.03" type="priority"/>
    <node id="10727641888" x="1015.45" y="318.36" type="priority"/>
    <node id="10727641895" x="991.73" y="315.55" type="traffic_light" tl="10727641895"/>
    <node id="10727641904" x="922.28" y="386.23" type="dead_end"/>
    <node id="10727680706" x="905.86" y="416.08" type="dead_end"/>
    <node id="10727680709" x="907.50" y="392.76" type="dead_end"/>
    <node id="10727680711" x="907.51" y="401.36" type="dead_end"/>
    <node id="10727680712" x="911.44" y="399.58" type="dead_end"/>
    <node id="10727680714" x="903.12" y="412.72" type="dead_end"/>
    <node id="10727680715" x="915.12" y="405.28" type="dead_end"/>
    <node id="10727680733" x="902.42" y="420.31" type="priority"/>
    <node id="10727680734" x="895.04" y="411.39" type="dead_end"/>
    <node id="10727680735" x="899.16" y="408.08" type="dead_end"/>
    <node id="10727680736" x="887.13" y="401.52" type="dead_end"/>
    <node id="10727680771" x="954.76" y="511.70" type="priority"/>
    <node id="10727763935" x="947.96" y="585.55" type="priority"/>
    <node id="10727788729" x="1046.45" y="385.60" type="traffic_light" tl="10727788729"/>
    <node id="10727788751" x="1089.73" y="538.96" type="priority"/>
    <node id="10774662123" x="1093.18" y="516.71" type="priority"/>
    <node id="10774662124" x="1102.66" y="472.25" type="dead_end"/>
    <node id="10774662142" x="1073.32" y="455.29" type="right_before_left"/>
    <node id="10774662143" x="1066.52" y="461.77" type="priority"/>
    <node id="10774662145" x="1066.04" y="451.50" type="priority"/>
    <node id="10774675634" x="2044.44" y="805.99" type="priority"/>
    <node id="10774675648" x="1965.59" y="1263.07" type="dead_end"/>
    <node id="10807942775" x="1175.00" y="1029.34" type="priority"/>
    <node id="10807942776" x="1167.12" y="1027.87" type="dead_end"/>
    <node id="10807970142" x="1055.71" y="879.90" type="priority"/>
    <node id="10807970143" x="1070.27" y="722.09" type="priority"/>
    <node id="10807970161" x="1000.15" y="356.88" type="dead_end"/>
    <node id="10807970168" x="999.26" y="359.90" type="dead_end"/>
    <node id="10807975730" x="952.84" y="1053.27" type="dead_end"/>
    <node id="10807975731" x="922.06" y="1011.91" type="priority"/>
    <node id="10807975738" x="945.70" y="1040.13" type="priority"/>
    <node id="10808035992" x="1056.17" y="406.55" type="priority"/>
    <node id="10808035994" x="1067.63" y="392.26" type="priority"/>
    <node id="10929828559" x="1320.77" y="778.69" type="priority"/>
    <node id="10929828560" x="1326.96" y="740.79" type="right_before_left"/>
    <node id="10929828561" x="1325.24" y="747.99" type="priority"/>
    <node id="10929828562" x="1319.73" y="771.10" type="priority"/>
    <node id="10929828563" x="1317.73" y="779.49" type="priority"/>
    <node id="10929828570" x="961.83" y="436.77" type="priority"/>
    <node id="10929828572" x="1000.46" y="354.01" type="priority"/>
    <node id="1098964842" x="1941.07" y="1159.58" type="dead_end"/>
    <node id="11013023077" x="1124.40" y="389.68" type="priority"/>
    <node id="11013023079" x="1102.18" y="458.35" type="dead_end"/>
    <node id="11028503799" x="1130.38" y="1052.68" type="priority"/>
    <node id="11028503800" x="1129.37" y="1000.23" type="right_before_left"/>
    <node id="11028503803" x="1146.43" y="1050.74" type="priority"/>
    <node id="11028503804" x="1146.19" y="999.98" type="right_before_left"/>
    <node id="11055432754" x="948.55" y="285.98" type="right_before_left"/>
    <node id="11055432755" x="947.88" y="310.56" type="priority"/>
    <node id="11055432757" x="946.00" y="267.25" type="dead_end"/>
    <node id="11055708052" x="2133.36" y="900.44" type="traffic_light" tl="11055708052"/>
    <node id="11055708055" x="1487.61" y="923.37" type="priority"/>
    <node id="11055708056" x="1328.39" y="932.31" type="priority"/>
    <node id="11055708057" x="1328.65" y="941.39" type="dead_end"/>
    <node id="11055708058" x="1328.39" y="924.58" type="dead_end"/>
    <node id="11055738000" x="1378.69" y="789.88" type="priority"/>
    <node id="11055738001" x="1056.15" y="803.51" type="priority"/>
    <node id="11055738002" x="1069.02" y="676.24" type="priority"/>
    <node id="11057650604" x="2042.26" y="215.21" type="traffic_light" tl="11057650604"/>
    <node id="11057686607" x="2083.16" y="366.88" type="priority"/>
    <node id="11062621401" x="917.51" y="792.70" type="dead_end"/>
    <node id="11062621402" x="926.94" y="794.34" type="priority"/>
    <node id="11062621403" x="920.78" y="767.60" type="dead_end"/>
    <node id="11062621404" x="925.34" y="768.25" type="dead_end"/>
    <node id="11062621405" x="929.41" y="768.98" type="priority"/>
    <node id="11063339873" x="862.43" y="303.68" type="priority"/>
    <node id="11063339874" x="1187.50" y="438.33" type="priority"/>
    <node id="11063339876" x="1216.57" y="412.71" type="priority"/>
    <node id="11170429332" x="1033.66" y="407.60" type="priority"/>
    <node id="11170707357" x="1964.81" y="1157.40" type="dead_end"/>
    <node id="11170707425" x="2081.89" y="1042.59" type="dead_end"/>
    <node id="11170707437" x="2129.71" y="959.30" type="dead_end"/>
    <node id="11170707439" x="2157.56" y="961.97" type="dead_end"/>
    <node id="11170707440" x="2128.44" y="963.11" type="dead_end"/>
    <node id="11170707442" x="2158.34" y="957.96" type="priority"/>
    <node id="11170707443" x="2113.48" y="840.97" type="dead_end"/>
    <node id="11170707476" x="877.37" y="388.42" type="priority"/>
    <node id="11170733478" x="802.49" y="305.98" type="dead_end"/>
    <node id="11170733480" x="891.13" y="306.00" type="priority"/>
    <node id="11170733530" x="886.36" y="400.12" type="dead_end"/>
    <node id="11170733531" x="880.29" y="391.65" type="dead_end"/>
    <node id="1125609454" x="1954.00" y="237.12" type="priority"/>
    <node id="1125609457" x="2024.36" y="549.84" type="dead_end"/>
    <node id="1125747493" x="0.00" y="1053.07" type="priority"/>
    <node id="1126092937" x="2048.36" y="213.70" type="priority"/>
    <node id="1126092941" x="2208.98" y="519.50" type="priority"/>
    <node id="1126092942" x="2139.02" y="193.47" type="dead_end"/>
    <node id="1126092947" x="2118.56" y="543.47" type="priority"/>
    <node id="1126092988" x="1931.74" y="145.90" type="dead_end"/>
    <node id="1126252975" x="2140.63" y="420.91" type="priority"/>
    <node id="1126252978" x="2118.09" y="307.62" type="priority"/>
    <node id="1126252981" x="2156.84" y="269.23" type="priority"/>
    <node id="1126252993" x="2188.35" y="292.49" type="priority"/>
    <node id="1126252995" x="2167.06" y="187.21" type="priority"/>
    <node id="1126253002" x="1816.80" y="500.17" type="priority"/>
    <node id="1126253004" x="1793.01" y="390.56" type="priority"/>
    <node id="1126253006" x="1768.12" y="281.84" type="priority"/>
    <node id="1126253007" x="1742.25" y="180.28" type="dead_end"/>
    <node id="1126253011" x="1840.71" y="378.48" type="priority"/>
    <node id="1126253016" x="1816.85" y="270.68" type="priority"/>
    <node id="1126253061" x="2284.18" y="275.96" type="dead_end"/>
    <node id="1126253062" x="2163.48" y="297.01" type="priority"/>
    <node id="1126253063" x="2071.95" y="319.60" type="priority"/>
    <node id="1126253064" x="1977.98" y="344.17" type="priority"/>
    <node id="1126253066" x="1886.94" y="367.19" type="priority"/>
    <node id="1126253068" x="1608.14" y="433.67" type="priority"/>
    <node id="1126253093" x="2299.12" y="354.83" type="priority"/>
    <node id="1126253096" x="2179.32" y="379.66" type="priority"/>
    <node id="1126253135" x="2429.21" y="356.35" type="dead_end"/>
    <node id="1126253139" x="2498.71" y="476.37" type="dead_end"/>
    <node id="1126253249" x="1721.22" y="523.95" type="priority"/>
    <node id="1126253250" x="1913.99" y="476.79" type="priority"/>
    <node id="1126253251" x="2002.72" y="453.91" type="priority"/>
    <node id="1126253252" x="2096.42" y="430.60" type="priority"/>
    <node id="1126253253" x="2185.60" y="411.06" type="priority"/>
    <node id="1126253262" x="1860.56" y="260.30" type="priority"/>
    <node id="1126875375" x="2288.23" y="298.73" type="priority"/>
    <node id="1126875385" x="2214.59" y="287.48" type="priority"/>
    <node id="1127141512" x="1535.08" y="336.79" type="priority"/>
    <node id="1127141513" x="1460.40" y="101.80" type="dead_end"/>
    <node id="1127141514" x="1491.57" y="237.88" type="priority"/>
    <node id="1127141515" x="1513.44" y="341.54" type="priority"/>
    <node id="1127141517" x="1640.71" y="888.57" type="priority"/>
    <node id="1127141518" x="1656.84" y="1097.78" type="dead_end"/>
    <node id="1127141519" x="1614.45" y="894.65" type="right_before_left"/>
    <node id="1127141527" x="1870.56" y="835.27" type="priority"/>
    <node id="1127141528" x="1820.69" y="608.14" type="priority"/>
    <node id="1127141529" x="1823.22" y="846.24" type="right_before_left"/>
    <node id="1127141530" x="1770.12" y="620.39" type="priority"/>
    <node id="1127141531" x="1771.83" y="858.16" type="priority"/>
    <node id="1127141532" x="1716.95" y="633.27" type="priority"/>
    <node id="1127141533" x="1726.20" y="868.74" type="right_before_left"/>
    <node id="1127141534" x="1671.72" y="644.22" type="priority"/>
    <node id="1127141535" x="1627.17" y="655.02" type="priority"/>
    <node id="1127141539" x="1672.45" y="881.21" type="priority"/>
    <node id="1127141541" x="1651.15" y="202.69" type="priority"/>
    <node id="1127141542" x="1675.85" y="303.17" type="priority"/>
    <node id="1127141543" x="1687.19" y="357.73" type="priority"/>
    <node id="1127141544" x="1698.26" y="412.47" type="priority"/>
    <node id="1127141546" x="1746.94" y="626.01" type="priority"/>
    <node id="1127141547" x="1780.83" y="336.89" type="priority"/>
    <node id="1127141548" x="1829.67" y="325.00" type="priority"/>
    <node id="1127141549" x="1810.25" y="469.97" type="priority"/>
    <node id="1127141550" x="1858.57" y="459.41" type="priority"/>
    <node id="1127141551" x="1677.84" y="534.74" type="priority"/>
    <node id="1127141554" x="1621.24" y="492.34" type="priority"/>
    <node id="1127141555" x="1415.58" y="363.28" type="priority"/>
    <node id="1127141556" x="1395.13" y="256.47" type="priority"/>
    <node id="1127141557" x="1367.01" y="123.08" type="priority"/>
    <node id="1127141568" x="1172.18" y="931.56" type="priority"/>
    <node id="1127141570" x="1380.42" y="929.76" type="priority"/>
    <node id="1127141578" x="1411.22" y="113.26" type="priority"/>
    <node id="1127141579" x="1440.75" y="247.77" type="priority"/>
    <node id="1127141580" x="1456.80" y="354.03" type="priority"/>
    <node id="1127141582" x="1459.01" y="395.19" type="priority"/>
    <node id="1127141585" x="1432.35" y="552.40" type="priority"/>
    <node id="1127141587" x="1392.62" y="713.54" type="priority"/>
    <node id="1127141591" x="1388.99" y="796.62" type="priority"/>
    <node id="1127141593" x="1539.80" y="116.89" type="priority"/>
    <node id="1127141594" x="1564.76" y="224.13" type="priority"/>
    <node id="1127141595" x="1585.82" y="324.82" type="priority"/>
    <node id="1127141596" x="1631.79" y="546.17" type="priority"/>
    <node id="1127141597" x="1657.57" y="647.65" type="priority"/>
    <node id="1127141653" x="1182.06" y="243.44" type="priority"/>
    <node id="1127142054" x="1865.04" y="488.69" type="priority"/>
    <node id="1127142056" x="1529.33" y="563.37" type="priority"/>
    <node id="1127142057" x="1558.71" y="564.46" type="priority"/>
    <node id="1127142058" x="1583.65" y="558.22" type="priority"/>
    <node id="1127142141" x="1008.95" y="323.95" type="priority"/>
    <node id="1127142146" x="1082.35" y="452.42" type="priority"/>
    <node id="1127210294" x="973.27" y="312.39" type="priority"/>
    <node id="1127210295" x="968.99" y="358.87" type="priority"/>
    <node id="1127210694" x="1322.76" y="342.55" type="priority"/>
    <node id="1127210698" x="1249.42" y="360.56" type="priority"/>
    <node id="1127210705" x="1123.34" y="390.99" type="priority"/>
    <node id="1127210713" x="1260.93" y="390.81" type="priority"/>
    <node id="1127210714" x="1206.36" y="665.10" type="priority"/>
    <node id="1127210738" x="1229.65" y="270.52" type="priority"/>
    <node id="1127210739" x="1239.08" y="313.32" type="priority"/>
    <node id="1127210746" x="1313.00" y="296.51" type="priority"/>
    <node id="1127210749" x="1152.71" y="335.58" type="priority"/>
    <node id="1127210778" x="1089.70" y="219.80" type="priority"/>
    <node id="1127210785" x="1302.31" y="253.67" type="priority"/>
    <node id="1127210788" x="1351.49" y="245.47" type="priority"/>
    <node id="1127210790" x="1391.02" y="237.22" type="priority"/>
    <node id="1127210793" x="1375.49" y="369.39" type="priority"/>
    <node id="1127210795" x="1327.38" y="130.35" type="priority"/>
    <node id="1127210801" x="1275.41" y="142.64" type="priority"/>
    <node id="1127210802" x="1329.35" y="374.73" type="priority"/>
    <node id="1127210881" x="1284.52" y="0.00" type="priority"/>
    <node id="1127211062" x="1102.48" y="466.92" type="priority"/>
    <node id="1127949271" x="1549.16" y="673.92" type="priority"/>
    <node id="1127949272" x="1551.94" y="638.81" type="priority"/>
    <node id="1127949273" x="1555.84" y="615.78" type="priority"/>
    <node id="1127949274" x="1554.02" y="598.38" type="priority"/>
    <node id="1127949276" x="1642.61" y="595.00" type="priority"/>
    <node id="1127949277" x="1497.71" y="593.92" type="priority"/>
    <node id="1127949278" x="1491.09" y="630.86" type="priority"/>
    <node id="1127949279" x="1524.38" y="635.28" type="priority"/>
    <node id="1127949280" x="1516.13" y="681.92" type="priority"/>
    <node id="1127949282" x="922.03" y="1020.76" type="priority"/>
    <node id="1127949293" x="922.58" y="852.72" type="priority"/>
    <node id="1127949296" x="819.82" y="849.48" type="priority"/>
    <node id="1127949305" x="1474.93" y="691.90" type="priority"/>
    <node id="1127949306" x="1502.17" y="562.32" type="priority"/>
    <node id="1127949307" x="1531.98" y="439.18" type="priority"/>
    <node id="1127949308" x="1495.24" y="435.36" type="priority"/>
    <node id="1127949309" x="1556.41" y="440.45" type="priority"/>
    <node id="1127949318" x="837.33" y="428.31" type="priority"/>
    <node id="1127949320" x="914.25" y="459.45" type="right_before_left"/>
    <node id="1127949321" x="959.81" y="458.84" type="priority"/>
    <node id="1127949323" x="950.97" y="552.80" type="priority"/>
    <node id="1127949325" x="812.42" y="547.93" type="priority"/>
    <node id="1127949328" x="818.45" y="541.52" type="priority"/>
    <node id="1127949336" x="910.69" y="511.04" type="right_before_left"/>
    <node id="1127949682" x="843.56" y="509.83" type="priority"/>
    <node id="1127949684" x="878.27" y="458.75" type="priority"/>
    <node id="1127949870" x="1215.21" y="1182.79" type="priority"/>
    <node id="1127949938" x="1292.72" y="1006.92" type="priority"/>
    <node id="1127949939" x="1267.28" y="1011.41" type="priority"/>
    <node id="1127949940" x="1223.58" y="1018.80" type="priority"/>
    <node id="1127949942" x="1174.60" y="1025.03" type="priority"/>
    <node id="1127949954" x="1222.60" y="978.40" type="priority"/>
    <node id="1127949978" x="1364.98" y="1077.42" type="priority"/>
    <node id="1127949989" x="1323.27" y="932.57" type="priority"/>
    <node id="1127949990" x="1349.15" y="780.78" type="priority"/>
    <node id="1127949999" x="1333.53" y="1099.55" type="priority"/>
    <node id="1127950003" x="1275.11" y="932.24" type="priority"/>
    <node id="1127950004" x="1285.37" y="784.20" type="priority"/>
    <node id="1127950020" x="1263.92" y="1148.52" type="priority"/>
    <node id="1127950024" x="1219.92" y="931.87" type="priority"/>
    <node id="1127950025" x="1235.92" y="775.76" type="priority"/>
    <node id="1127950026" x="1179.41" y="823.86" type="priority"/>
    <node id="1127950027" x="1060.51" y="804.25" type="priority"/>
    <node id="1127950028" x="928.17" y="781.64" type="priority"/>
    <node id="1127950031" x="1336.63" y="777.35" type="priority"/>
    <node id="1127950036" x="1185.13" y="774.85" type="priority"/>
    <node id="1127950037" x="1065.27" y="752.13" type="priority"/>
    <node id="1127950038" x="995.14" y="739.81" type="priority" fringe="inner">
        <param key="buffer_stop" value="true"/>
    </node>
    <node id="1127950039" x="936.25" y="698.83" type="priority"/>
    <node id="1127950040" x="1064.29" y="721.05" type="priority"/>
    <node id="1127950041" x="1191.85" y="743.18" type="priority"/>
    <node id="1127950043" x="1198.64" y="698.45" type="priority"/>
    <node id="1127950044" x="1071.78" y="676.73" type="priority"/>
    <node id="1127950045" x="941.36" y="651.19" type="priority"/>
    <node id="1127950046" x="1335.67" y="689.22" type="priority"/>
    <node id="1127950048" x="1076.05" y="647.72" type="priority"/>
    <node id="1127950049" x="944.87" y="617.92" type="priority"/>
    <node id="1127950060" x="1334.64" y="519.38" type="priority"/>
    <node id="1127950062" x="1354.07" y="407.80" type="priority"/>
    <node id="1127950064" x="1350.96" y="372.13" type="priority"/>
    <node id="1127950068" x="949.88" y="564.72" type="priority"/>
    <node id="1127950072" x="1086.65" y="589.85" type="priority"/>
    <node id="1127950075" x="1217.92" y="619.55" type="priority"/>
    <node id="1127950081" x="1324.65" y="735.04" type="priority"/>
    <node id="1127950082" x="1315.54" y="739.36" type="priority"/>
    <node id="1127950086" x="1196.54" y="716.87" type="priority"/>
    <node id="1127950091" x="1096.37" y="539.51" type="priority"/>
    <node id="1127950093" x="1050.69" y="879.10" type="priority"/>
    <node id="1127950095" x="1052.90" y="921.56" type="priority"/>
    <node id="1127950097" x="1050.39" y="970.24" type="priority"/>
    <node id="1127950114" x="922.16" y="972.50" type="priority"/>
    <node id="1127950123" x="1172.83" y="969.49" type="priority"/>
    <node id="1127950141" x="1173.38" y="892.75" type="priority"/>
    <node id="1127950176" x="1302.79" y="379.74" type="priority"/>
    <node id="1127950177" x="1309.96" y="414.85" type="priority"/>
    <node id="1127950179" x="1290.31" y="513.56" type="priority"/>
    <node id="1127950185" x="1392.27" y="366.98" type="priority"/>
    <node id="1127950188" x="1396.52" y="405.56" type="priority"/>
    <node id="1127950189" x="1374.54" y="524.04" type="priority"/>
    <node id="1127950190" x="1370.91" y="543.67" type="priority"/>
    <node id="1127950191" x="1365.68" y="579.82" type="priority"/>
    <node id="1127950194" x="1388.10" y="583.18" type="priority"/>
    <node id="1127950195" x="1396.07" y="547.24" type="priority"/>
    <node id="1127950197" x="1425.40" y="400.16" type="priority"/>
    <node id="1127950200" x="1240.35" y="506.84" type="priority"/>
    <node id="1127950204" x="1230.93" y="563.93" type="priority"/>
    <node id="1127950207" x="954.49" y="514.56" type="priority"/>
    <node id="1127950213" x="1495.70" y="798.36" type="priority"/>
    <node id="1127950215" x="1540.11" y="786.48" type="priority"/>
    <node id="1127950225" x="1479.33" y="924.90" type="priority"/>
    <node id="1127950227" x="1450.40" y="822.55" type="priority"/>
    <node id="1127950228" x="1418.69" y="706.63" type="priority"/>
    <node id="1127950230" x="1442.80" y="926.70" type="priority"/>
    <node id="1127950239" x="1504.57" y="390.06" type="priority"/>
    <node id="1127950241" x="1468.54" y="557.55" type="priority"/>
    <node id="1127950243" x="1434.63" y="702.40" type="priority"/>
    <node id="1127950244" x="1546.83" y="393.14" type="priority"/>
    <node id="1127950245" x="1493.18" y="990.97" type="priority"/>
    <node id="1127950246" x="1538.08" y="975.49" type="priority"/>
    <node id="1127950247" x="1500.82" y="1021.50" type="priority"/>
    <node id="1127950248" x="1546.33" y="1006.86" type="priority"/>
    <node id="1127950249" x="1572.94" y="904.28" type="right_before_left"/>
    <node id="1127950250" x="1511.19" y="683.12" type="priority"/>
    <node id="1127950253" x="1530.05" y="914.22" type="priority"/>
    <node id="1127950254" x="1466.14" y="694.03" type="priority"/>
    <node id="1127950255" x="1585.48" y="1152.07" type="priority"/>
    <node id="1127950259" x="1529.89" y="939.66" type="priority"/>
    <node id="1127950261" x="1528.46" y="1131.77" type="priority"/>
    <node id="1127950264" x="1483.85" y="953.77" type="priority"/>
    <node id="1127950266" x="921.66" y="910.46" type="priority"/>
    <node id="1128276738" x="864.73" y="774.43" type="right_before_left"/>
    <node id="1128276740" x="821.50" y="776.19" type="priority"/>
    <node id="1128276806" x="934.38" y="718.10" type="priority"/>
    <node id="1128276807" x="875.43" y="715.60" type="priority"/>
    <node id="1128276812" x="817.83" y="715.44" type="priority"/>
    <node id="1128276831" x="845.46" y="850.40" type="priority"/>
    <node id="1128276834" x="876.20" y="616.57" type="right_before_left"/>
    <node id="1128276837" x="876.17" y="553.12" type="priority"/>
    <node id="1128276929" x="869.39" y="1033.89" type="priority"/>
    <node id="1128276932" x="870.02" y="851.37" type="priority"/>
    <node id="1128277099" x="702.83" y="1184.43" type="priority"/>
    <node id="11565583131" x="1779.18" y="1006.68" type="priority"/>
    <node id="11565583168" x="1954.52" y="1022.08" type="priority"/>
    <node id="12017095589" x="2011.95" y="604.22" type="priority"/>
    <node id="12017095597" x="2033.61" y="597.92" type="priority"/>
    <node id="12017095605" x="2304.98" y="607.21" type="dead_end"/>
    <node id="12064794162" x="907.00" y="716.75" type="priority"/>
    <node id="12064794163" x="904.61" y="729.54" type="priority"/>
    <node id="12147095716" x="1899.57" y="796.77" type="priority"/>
    <node id="12147095721" x="1989.33" y="727.87" type="priority"/>
    <node id="12242056387" x="1167.25" y="288.06" type="priority"/>
    <node id="12242059251" x="1132.44" y="928.22" type="priority"/>
    <node id="12242059252" x="1135.97" y="888.67" type="priority"/>
    <node id="12242059253" x="1133.79" y="913.50" type="dead_end"/>
    <node id="12242059254" x="1136.27" y="913.56" type="dead_end"/>
    <node id="12242108652" x="1099.03" y="884.63" type="priority"/>
    <node id="12242108653" x="1097.72" y="889.85" type="priority"/>
    <node id="12489324186" x="979.80" y="439.42" type="right_before_left"/>
    <node id="12489324188" x="996.17" y="408.92" type="priority"/>
    <node id="12489324191" x="980.06" y="405.04" type="priority"/>
    <node id="12496154968" x="831.39" y="301.19" type="priority"/>
    <node id="12496154971" x="946.85" y="250.33" type="priority"/>
    <node id="12496154973" x="916.21" y="249.57" type="right_before_left"/>
    <node id="12556660751" x="1899.01" y="903.13" type="dead_end"/>
    <node id="12563626269" x="1044.57" y="381.56" type="traffic_light" tl="12563626269"/>
    <node id="12563626270" x="1047.98" y="388.91" type="traffic_light" tl="12563626270"/>
    <node id="12563626275" x="2095.73" y="713.94" type="dead_end"/>
    <node id="12563626285" x="2158.79" y="712.89" type="dead_end"/>
    <node id="12568360524" x="899.87" y="617.02" type="priority"/>
    <node id="12568360525" x="900.66" y="599.08" type="priority"/>
    <node id="12568360527" x="903.52" y="617.10" type="right_before_left"/>
    <node id="12568360529" x="905.61" y="602.17" type="dead_end"/>
    <node id="12568360530" x="918.26" y="617.38" type="priority"/>
    <node id="12568360531" x="918.94" y="599.63" type="priority"/>
    <node id="12568360533" x="923.57" y="617.49" type="right_before_left"/>
    <node id="12568360534" x="923.09" y="625.34" type="dead_end"/>
    <node id="12568360537" x="876.31" y="631.40" type="right_before_left"/>
    <node id="12568360538" x="885.02" y="631.57" type="dead_end"/>
    <node id="12569484102" x="2024.14" y="573.00" type="dead_end"/>
    <node id="12583319800" x="922.51" y="857.31" type="priority"/>
    <node id="12583321005" x="1052.89" y="1001.26" type="right_before_left"/>
    <node id="12583321013" x="1092.56" y="1068.68" type="dead_end"/>
    <node id="12583321042" x="1115.17" y="1054.94" type="priority"/>
    <node id="12583321051" x="1113.04" y="1000.47" type="right_before_left"/>
    <node id="12583321052" x="1113.39" y="1044.62" type="right_before_left"/>
    <node id="12583321064" x="1112.99" y="1018.29" type="right_before_left"/>
    <node id="12625867536" x="944.56" y="620.90" type="priority"/>
    <node id="12772322407" x="2329.79" y="642.48" type="dead_end"/>
    <node id="13042285410" x="913.66" y="307.81" type="priority"/>
    <node id="13092537925" x="2145.34" y="872.64" type="priority"/>
    <node id="13092537926" x="2141.90" y="877.96" type="dead_end"/>
    <node id="13092537928" x="2138.03" y="903.78" type="dead_end"/>
    <node id="13092537929" x="2136.51" y="913.96" type="priority"/>
    <node id="13092537930" x="2135.97" y="917.55" type="priority"/>
    <node id="13092537931" x="2135.12" y="923.23" type="dead_end"/>
    <node id="13092537932" x="2131.95" y="944.37" type="dead_end"/>
    <node id="13092537933" x="2130.44" y="954.43" type="priority"/>
    <node id="13092537957" x="2078.19" y="1015.16" type="dead_end"/>
    <node id="13092537958" x="2086.22" y="1005.67" type="dead_end"/>
    <node id="13092537959" x="2097.48" y="1029.53" type="dead_end"/>
    <node id="13092537962" x="2078.20" y="1009.32" type="dead_end"/>
    <node id="1315602228" x="1896.98" y="829.14" type="priority"/>
    <node id="13401392974" x="2184.00" y="847.59" type="dead_end"/>
    <node id="13401392975" x="2182.37" y="844.52" type="dead_end"/>
    <node id="13401392976" x="2187.05" y="859.12" type="dead_end"/>
    <node id="13401392978" x="2244.56" y="835.60" type="dead_end"/>
    <node id="13401392979" x="2177.51" y="875.70" type="dead_end"/>
    <node id="13427220835" x="987.39" y="314.15" type="traffic_light" tl="13427220835"/>
    <node id="13427220836" x="996.36" y="317.29" type="traffic_light" tl="13427220836"/>
    <node id="13705395500" x="2006.18" y="586.58" type="dead_end"/>
    <node id="13705401102" x="1996.58" y="597.63" type="dead_end"/>
    <node id="13736970499" x="1840.91" y="941.88" type="right_before_left"/>
    <node id="13737032703" x="1896.19" y="888.35" type="priority" fringe="inner">
        <param key="buffer_stop" value="true"/>
    </node>
    <node id="13737032704" x="1846.77" y="957.29" type="priority"/>
    <node id="13737032705" x="1810.12" y="860.92" type="priority"/>
    <node id="1855026115" x="2056.63" y="558.90" type="priority"/>