<?xml version="1.0" encoding="UTF-8"?>

<!-- generated on 2026-05-20T02:49:23.957636+03:00 by Eclipse SUMO netconvert 1.26.0
<netconvertConfiguration xmlns:xsi="http://www.w3.org/2001/XMLSchema-instance" xsi:noNamespaceSchemaLocation="http://sumo.dlr.de/xsd/netconvertConfiguration.xsd">

    <input>
        <sumo-net-file value=".\map.net.xml"/>
    </input>

    <output>
        <plain-output-prefix value="check"/>
    </output>

    <processing>
        <geometry.min-radius.fix.railways value="false"/>
        <geometry.avoid-overlap value="false"/>
        <geometry.max-grade.fix value="false"/>
        <offset.disable-normalization value="true"/>
        <lefthand value="0"/>
    </processing>

    <junctions>
        <no-turnarounds value="true"/>
        <junctions.corner-detail value="5"/>
        <junctions.limit-turn-speed value="5.50"/>
        <rectangular-lane-cut value="0"/>
    </junctions>

    <pedestrian>
        <walkingareas value="0"/>
    </pedestrian>

</netconvertConfiguration>
-->

<tlLogics version="1.20" xmlns:xsi="http://www.w3.org/2001/XMLSchema-instance" xsi:noNamespaceSchemaLocation="http://sumo.dlr.de/xsd/tllogic_file.xsd">
    <tlLogic id="10067289163" type="static" programID="0" offset="0">
        <phase duration="82" state="GG"/>
        <phase duration="3"  state="yy"/>
        <phase duration="5"  state="rr"/>
    </tlLogic>
    <tlLogic id="10727641895" type="static" programID="0" offset="0">
        <phase duration="82" state="GG"/>
        <phase duration="3"  state="yy"/>
        <phase duration="5"  state="rr"/>
    </tlLogic>
    <tlLogic id="10727788729" type="static" programID="0" offset="0">
        <phase duration="82" state="GG"/>
        <phase duration="3"  state="yy"/>
        <phase duration="5"  state="rr"/>
    </tlLogic>
    <tlLogic id="11055708052" type="static" programID="0" offset="0">
        <phase duration="82" state="GG"/>
        <phase duration="3"  state="yy"/>
        <phase duration="5"  state="rr"/>
    </tlLogic>
    <tlLogic id="11057650604" type="static" programID="0" offset="0">
        <phase duration="79" state="GG"/>
        <phase duration="6"  state="yy"/>
        <phase duration="5"  state="rr"/>
    </tlLogic>
    <tlLogic id="12563626269" type="static" programID="0" offset="0">
        <phase duration="82" state="GG"/>
        <phase duration="3"  state="yy"/>
        <phase duration="5"  state="rr"/>
    </tlLogic>
    <tlLogic id="12563626270" type="static" programID="0" offset="0">
        <phase duration="82" state="GG"/>
        <phase duration="3"  state="yy"/>
        <phase duration="5"  state="rr"/>
    </tlLogic>
    <tlLogic id="13427220835" type="static" programID="0" offset="0">
        <phase duration="82" state="GG"/>
        <phase duration="3"  state="yy"/>
        <phase duration="5"  state="rr"/>
    </tlLogic>
    <tlLogic id="13427220836" type="static" programID="0" offset="0">
        <phase duration="82" state="GG"/>
        <phase duration="3"  state="yy"/>
        <phase duration="5"  state="rr"/>
    </tlLogic>
    <tlLogic id="8752584811" type="static" programID="0" offset="0">
        <phase duration="82" state="G"/>
        <phase duration="3"  state="y"/>
        <phase duration="5"  state="r"/>
    </tlLogic>
    <tlLogic id="8755208776" type="static" programID="0" offset="0">
        <phase duration="82" state="GG"/>
        <phase duration="3"  state="yy"/>
        <phase duration="5"  state="rr"/>
    </tlLogic>

    <connection from="-1189844413#1" to="-1189844413#0" fromLane="0" toLane="0" tl="12563626269" linkIndex="0"/>
    <connection from="-1189844413#2" to="-1189844413#1" fromLane="0" toLane="0" tl="10727788729" linkIndex="0"/>
    <connection from="-1189844413#3" to="-1189844413#2" fromLane="0" toLane="0" tl="12563626270" linkIndex="0"/>
    <connection from="-1191607152#1" to="-1191607152#0" fromLane="0" toLane="0" tl="13427220835" linkIndex="0"/>
    <connection from="-1191607152#2" to="-1191607152#1" fromLane="0" toLane="0" tl="10727641895" linkIndex="0"/>
    <connection from="-1191607152#3" to="-1191607152#2" fromLane="0" toLane="0" tl="13427220836" linkIndex="0"/>
    <connection from="-1419294837#3" to="-1419294837#2" fromLane="0" toLane="0" tl="11057650604" linkIndex="0"/>
    <connection from="1189844413#0" to="1189844413#1" fromLane="0" toLane="0" tl="12563626269" linkIndex="1"/>
    <connection from="1189844413#1" to="1189844413#2" fromLane="0" toLane="0" tl="10727788729" linkIndex="1"/>
    <connection from="1189844413#2" to="1189844413#3" fromLane="0" toLane="0" tl="12563626270" linkIndex="1"/>
    <connection from="1191607152#0" to="1191607152#1" fromLane="0" toLane="0" tl="13427220835" linkIndex="1"/>
    <connection from="1191607152#1" to="1191607152#2" fromLane="0" toLane="0" tl="10727641895" linkIndex="1"/>
    <connection from="1191607152#2" to="1191607152#3" fromLane="0" toLane="0" tl="13427220836" linkIndex="1"/>
    <connection from="1419294837#2" to="1419294837#3" fromLane="0" toLane="0" tl="11057650604" linkIndex="1"/>
    <connection from="174851607#0" to="174851607#1" fromLane="0" toLane="0" tl="8755208776" linkIndex="0"/>
    <connection from="174851607#0" to="174851607#1" fromLane="1" toLane="1" tl="8755208776" linkIndex="1"/>
    <connection from="174851607#1" to="174851607#2" fromLane="0" toLane="0" tl="10067289163" linkIndex="0"/>
    <connection from="174851607#1" to="174851607#2" fromLane="1" toLane="1" tl="10067289163" linkIndex="1"/>
    <connection from="175098195#0" to="175098195#1" fromLane="0" toLane="0" tl="8752584811" linkIndex="0"/>
    <connection from="945425999#0" to="945425999#1" fromLane="0" toLane="0" tl="11055708052" linkIndex="0"/>
    <connection from="945425999#0" to="945425999#1" fromLane="1" toLane="1" tl="11055708052" linkIndex="1"/>
</tlLogics>
