<?xml version="1.0" encoding="UTF-8"?>

<!-- generated on 2026-05-20T02:49:23.928483+03:00 by Eclipse SUMO netconvert 1.26.0
<netconvertConfiguration xmlns:xsi="http://www.w3.org/2001/XMLSchema-instance" xsi:noNamespaceSchemaLocation="http://sumo.dlr.de/xsd/netconvertConfiguration.xsd">

    <input>
        <sumo-net-file value=".\map.net.xml"/>
    </input>

    <output>
        <plain-output-prefix value="check"/>
    </output>

    <processing>
        <geometry.min-radius.fix.railways value="false"/>
        <geometry.avoid-overlap value="false"/>
        <geometry.max-grade.fix value="false"/>
        <offset.disable-normalization value="true"/>
        <lefthand value="0"/>
    </processing>

    <junctions>
        <no-turnarounds value="true"/>
        <junctions.corner-detail value="5"/>
        <junctions.limit-turn-speed value="5.50"/>
        <rectangular-lane-cut value="0"/>
    </junctions>

    <pedestrian>
        <walkingareas value="0"/>
    </pedestrian>

</netconvertConfiguration>
-->

<edges version="1.20" xmlns:xsi="http://www.w3.org/2001/XMLSchema-instance" xsi:noNamespaceSchemaLocation="http://sumo.dlr.de/xsd/edges_file.xsd">
    <location netOffset="-642888.13,-4537717.81" convBoundary="0.00,0.00,2689.02,1359.24" origBoundary="28.626236,40.977900,28.797545,41.029922" projParameter="+proj=utm +zone=35 +ellps=WGS84 +datum=WGS84 +units=m +no_defs"/>

    <edge id="-1025497533" from="9455303891" to="9455303892" priority="1" type="highway.service" numLanes="1" speed="5.56" allow="pedestrian delivery bicycle"/>
    <edge id="-1032663051#0" from="1127949682" to="1127949328" priority="3" type="highway.residential" numLanes="1" speed="13.89" shape="843.56,509.83 831.59,525.55 818.45,541.52" disallow="tram rail_urban rail rail_electric rail_fast ship container cable_car subway aircraft wheelchair scooter drone"/>
    <edge id="-1032663051#1" from="1127949684" to="1127949682" priority="3" type="highway.residential" numLanes="1" speed="13.89" shape="878.27,458.75 865.41,481.10 843.56,509.83" disallow="tram rail_urban rail rail_electric rail_fast ship container cable_car subway aircraft wheelchair scooter drone"/>
    <edge id="-1064570318#0" from="1128276932" to="1127949293" priority="3" type="highway.residential" numLanes="1" speed="13.89" disallow="tram rail_urban rail rail_electric rail_fast ship container cable_car subway aircraft wheelchair scooter drone"/>
    <edge id="-1064570318#1" from="1128276831" to="1128276932" priority="3" type="highway.residential" numLanes="1" speed="13.89" disallow="tram rail_urban rail rail_electric rail_fast ship container cable_car subway aircraft wheelchair scooter drone"/>
    <edge id="-1064570318#2" from="1127949296" to="1128276831" priority="3" type="highway.residential" numLanes="1" speed="13.89" disallow="tram rail_urban rail rail_electric rail_fast ship container cable_car subway aircraft wheelchair scooter drone"/>
    <edge id="-1153465383#0" from="1127950191" to="1127950194" priority="3" type="highway.residential" numLanes="1" speed="13.89" disallow="tram rail_urban rail rail_electric rail_fast ship container cable_car subway aircraft wheelchair scooter drone"/>
    <edge id="-1153465383#1" from="1127950204" to="1127950191" priority="3" type="highway.residential" numLanes="1" speed="13.89" disallow="tram rail_urban rail rail_electric rail_fast ship container cable_car subway aircraft wheelchair scooter drone"/>
    <edge id="-1153465384#0" from="1127949336" to="10727680771" priority="2" type="highway.living_street" numLanes="1" speed="2.78" disallow="tram rail_urban rail rail_electric rail_fast ship container cable_car subway aircraft wheelchair scooter drone"/>
    <edge id="-1153465384#1" from="1127949682" to="1127949336" priority="2" type="highway.living_street" numLanes="1" speed="2.78" disallow="tram rail_urban rail rail_electric rail_fast ship container cable_car subway aircraft wheelchair scooter drone"/>
    <edge id="-1153465385" from="1127210295" to="1127210294" priority="11" type="highway.secondary" numLanes="1" speed="27.78" shape="968.99,358.87 972.53,320.38 973.27,312.39" disallow="tram rail_urban rail rail_electric rail_fast ship container cable_car subway aircraft wheelchair scooter drone"/>
    <edge id="-1153465386" from="1127950086" to="1127950082" priority="3" type="highway.residential" numLanes="1" speed="13.89" disallow="tram rail_urban rail rail_electric rail_fast ship container cable_car subway aircraft wheelchair scooter drone"/>
    <edge id="-1153465387#0" from="12568360533" to="1127950049" priority="2" type="highway.living_street" numLanes="1" speed="2.78" disallow="tram rail_urban rail rail_electric rail_fast ship container cable_car subway aircraft wheelchair scooter drone"/>
    <edge id="-1153465387#1" from="12568360530" to="12568360533" priority="2" type="highway.living_street" numLanes="1" speed="2.78" disallow="tram rail_urban rail rail_electric rail_fast ship container cable_car subway aircraft wheelchair scooter drone"/>
    <edge id="-1153465387#2" from="12568360527" to="12568360530" priority="2" type="highway.living_street" numLanes="1" speed="2.78" disallow="tram rail_urban rail rail_electric rail_fast ship container cable_car subway aircraft wheelchair scooter drone"/>
    <edge id="-1153465387#3" from="12568360524" to="12568360527" priority="2" type="highway.living_street" numLanes="1" speed="2.78" disallow="tram rail_urban rail rail_electric rail_fast ship container cable_car subway aircraft wheelchair scooter drone"/>
    <edge id="-1153465387#4" from="1128276834" to="12568360524" priority="2" type="highway.living_street" numLanes="1" speed="2.78" disallow="tram rail_urban rail rail_electric rail_fast ship container cable_car subway aircraft wheelchair scooter drone"/>
    <edge id="-1153479158#0" from="10929828570" to="1127210295" priority="11" type="highway.secondary" numLanes="1" speed="27.78" shape="961.83,436.77 967.86,371.25 968.99,358.87" disallow="tram rail_urban rail rail_electric rail_fast ship container cable_car subway aircraft wheelchair scooter drone"/>
    <edge id="-1153479158#1" from="1127949321" to="10929828570" priority="11" type="highway.secondary" numLanes="1" speed="27.78" disallow="tram rail_urban rail rail_electric rail_fast ship container cable_car subway aircraft wheelchair scooter drone"/>
    <edge id="-1153479162#0" from="10807975731" to="1127950114" priority="11" type="highway.secondary" numLanes="1" speed="27.78" disallow="tram rail_urban rail rail_electric rail_fast ship container cable_car subway aircraft wheelchair scooter drone"/>
    <edge id="-1153479162#1" from="1127949282" to="10807975731" priority="11" type="highway.secondary" numLanes="1" speed="27.78" disallow="tram rail_urban rail rail_electric rail_fast ship container cable_car subway aircraft wheelchair scooter drone"/>
    <edge id="-1153479162#2" from="3443678185" to="1127949282" priority="11" type="highway.secondary" numLanes="1" speed="27.78" shape="921.92,1062.17 921.98,1040.49 922.03,1020.76" disallow="tram rail_urban rail rail_electric rail_fast ship container cable_car subway aircraft wheelchair scooter drone"/>
    <edge id="-1153486211#0" from="1127141579" to="1127141578" priority="3" type="highway.residential" numLanes="1" speed="13.89" disallow="tram rail_urban rail rail_electric rail_fast ship container cable_car subway aircraft wheelchair scooter drone"/>
    <edge id="-1153486211#1" from="1127141580" to="1127141579" priority="3" type="highway.residential" numLanes="1" speed="13.89" disallow="tram rail_urban rail rail_electric rail_fast ship container cable_car subway aircraft wheelchair scooter drone"/>
    <edge id="-1153486212#0" from="1127141515" to="1127141580" priority="12" type="highway.primary" numLanes="1" speed="27.78" disallow="tram rail_urban rail rail_electric rail_fast ship container cable_car subway aircraft wheelchair scooter drone"/>
    <edge id="-1153486212#1" from="1127141512" to="1127141515" priority="12" type="highway.primary" numLanes="1" speed="27.78" shape="1535.08,336.79 1522.86,339.47 1513.44,341.54" disallow="tram rail_urban rail rail_electric rail_fast ship container cable_car subway aircraft wheelchair scooter drone"/>
    <edge id="-1153486212#2" from="1127141595" to="1127141512" priority="12" type="highway.primary" numLanes="1" speed="27.78" disallow="tram rail_urban rail rail_electric rail_fast ship container cable_car subway aircraft wheelchair scooter drone"/>
    <edge id="-1153486212#3" from="2375000742" to="1127141595" priority="12" type="highway.primary" numLanes="1" speed="27.78" disallow="tram rail_urban rail rail_electric rail_fast ship container cable_car subway aircraft wheelchair scooter drone"/>
    <edge id="-1153486212#4" from="1127141542" to="2375000742" priority="12" type="highway.primary" numLanes="1" speed="27.78" disallow="tram rail_urban rail rail_electric rail_fast ship container cable_car subway aircraft wheelchair scooter drone"/>
    <edge id="-1153486212#5" from="1126253006" to="1127141542" priority="12" type="highway.primary" numLanes="1" speed="27.78" disallow="tram rail_urban rail rail_electric rail_fast ship container cable_car subway aircraft wheelchair scooter drone"/>
    <edge id="-1153486214" from="10727788751" to="10774662123" priority="1" type="highway.service" numLanes="1" speed="5.56" allow="pedestrian delivery bicycle"/>
    <edge id="-1158596643#0" from="10774662142" to="1127142146" priority="1" type="highway.service" numLanes="1" speed="5.56" shape="1073.32,455.29 1074.25,454.99 1082.35,452.42" allow="pedestrian delivery bicycle"/>
    <edge id="-1158596643#1" from="10774662143" to="10774662142" priority="1" type="highway.service" numLanes="1" speed="5.56" shape="1066.52,461.77 1069.92,458.53 1073.32,455.29" allow="pedestrian delivery bicycle"/>
    <edge id="-1158596644" from="10774662145" to="10774662142" priority="1" type="highway.service" numLanes="1" speed="5.56" shape="1066.04,451.50 1069.46,454.46 1073.32,455.29" allow="pedestrian delivery bicycle"/>
    <edge id="-1162122758" from="11028503800" to="11028503799" priority="1" type="highway.service" numLanes="1" speed="5.56" allow="pedestrian delivery bicycle"/>
    <edge id="-1162122759" from="11028503804" to="11028503803" priority="1" type="highway.service" numLanes="1" speed="5.56" allow="pedestrian delivery bicycle"/>
    <edge id="-1162126200#0" from="10807975738" to="3443678174" priority="1" type="highway.service" numLanes="1" speed="5.56" allow="pedestrian delivery bicycle"/>
    <edge id="-1162126200#1" from="3443678183" to="10807975738" priority="1" type="highway.service" numLanes="1" speed="5.56" allow="pedestrian delivery bicycle"/>
    <edge id="-1162136753" from="10808035994" to="10808035992" priority="1" type="highway.service" numLanes="1" speed="5.56" shape="1067.63,392.26 1061.80,399.27 1056.17,406.55" allow="pedestrian delivery bicycle"/>
    <edge id="-1176361869#0" from="10929828560" to="1127950081" priority="1" type="highway.service" numLanes="1" speed="5.56" allow="pedestrian delivery bicycle"/>
    <edge id="-1176361869#1" from="10929828559" to="10929828560" priority="1" type="highway.service" numLanes="1" speed="5.56" shape="1320.77,778.69 1328.29,743.57 1326.96,740.79" allow="pedestrian delivery bicycle"/>
    <edge id="-1176361870" from="10929828562" to="10929828561" priority="1" type="highway.service" numLanes="1" speed="5.56" allow="pedestrian delivery bicycle"/>
    <edge id="-1176361874" from="10929828570" to="12489324186" priority="1" type="highway.service" numLanes="1" speed="5.56" shape="961.83,436.77 967.91,437.63 979.80,439.42" allow="pedestrian delivery bicycle"/>
    <edge id="-1176361875" from="10929828572" to="1127142141" priority="1" type="highway.service" numLanes="1" speed="5.56" shape="1000.46,354.01 1003.50,333.09 1008.95,323.95" allow="pedestrian delivery bicycle"/>
    <edge id="-1185593284#0" from="1127210705" to="11013023079" priority="1" type="highway.pedestrian" numLanes="1" speed="2.78" shape="1123.34,390.99 1118.74,396.67 1109.45,409.98 1102.18,458.35" width="2.00" allow="pedestrian"/>
    <edge id="-1185593284#1" from="11013023077" to="1127210705" priority="1" type="highway.pedestrian" numLanes="1" speed="2.78" width="2.00" allow="pedestrian"/>
    <edge id="-1185593286#0" from="12242056387" to="1127210749" priority="1" type="highway.pedestrian" numLanes="1" speed="2.78" width="2.00" allow="pedestrian"/>
    <edge id="-1185593286#1" from="1127141653" to="12242056387" priority="1" type="highway.pedestrian" numLanes="1" speed="2.78" shape="1182.06,243.44 1178.06,253.25 1177.45,254.38 1173.61,267.92 1167.70,286.58 1167.25,288.06" width="2.00" allow="pedestrian"/>
    <edge id="-1185593287" from="1127210749" to="11013023077" priority="3" type="highway.residential" numLanes="1" speed="13.89" shape="1152.71,335.58 1149.49,347.80 1140.94,369.22 1124.40,389.68" disallow="tram rail_urban rail rail_electric rail_fast ship container cable_car subway aircraft wheelchair scooter drone"/>
    <edge id="-1185593291#0" from="10727641888" to="1127210778" priority="11" type="highway.secondary" numLanes="1" speed="27.78" shape="1015.45,318.36 1033.13,296.04 1059.02,265.07 1089.70,219.80" disallow="tram rail_urban rail rail_electric rail_fast ship container cable_car subway aircraft wheelchair scooter drone"/>
    <edge id="-1185593291#1" from="1127142141" to="10727641888" priority="11" type="highway.secondary" numLanes="1" speed="27.78" disallow="tram rail_urban rail rail_electric rail_fast ship container cable_car subway aircraft wheelchair scooter drone"/>
    <edge id="-1189844401#0" from="12064794162" to="1128276806" priority="3" type="highway.residential" numLanes="1" speed="13.89" disallow="tram rail_urban rail rail_electric rail_fast ship container cable_car subway aircraft wheelchair scooter drone"/>
    <edge id="-1189844401#1" from="1128276807" to="12064794162" priority="3" type="highway.residential" numLanes="1" speed="13.89" shape="875.43,715.60 905.45,716.66 907.00,716.75" disallow="tram rail_urban rail rail_electric rail_fast ship container cable_car subway aircraft wheelchair scooter drone"/>
    <edge id="-1189844401#2" from="1128276812" to="1128276807" priority="3" type="highway.residential" numLanes="1" speed="13.89" shape="817.83,715.44 827.25,714.49 875.43,715.60" disallow="tram rail_urban rail rail_electric rail_fast ship container cable_car subway aircraft wheelchair scooter drone"/>
    <edge id="-1189844403" from="1128276837" to="1127949325" priority="3" type="highway.residential" numLanes="1" speed="13.89" shape="876.17,553.12 827.99,553.36 812.42,547.93" disallow="tram rail_urban rail rail_electric rail_fast ship container cable_car subway aircraft wheelchair scooter drone"/>
    <edge id="-1189844409#0" from="10727680771" to="1127949321" priority="11" type="highway.secondary" numLanes="1" speed="27.78" shape="954.76,511.70 959.14,465.83 959.81,458.84" disallow="tram rail_urban rail rail_electric rail_fast ship container cable_car subway aircraft wheelchair scooter drone"/>
    <edge id="-1189844409#1" from="1127950207" to="10727680771" priority="11" type="highway.secondary" numLanes="1" speed="27.78" disallow="tram rail_urban rail rail_electric rail_fast ship container cable_car subway aircraft wheelchair scooter drone"/>
    <edge id="-1189844410" from="10727680733" to="2364034584" priority="1" type="highway.path" numLanes="1" speed="5.56" shape="902.42,420.31 905.21,423.95 909.11,425.16 916.12,425.74 916.41,427.78" width="2.00" allow="pedestrian bicycle"/>
    <edge id="-1189844413#0" from="12563626269" to="1127142141" priority="12" type="highway.primary" numLanes="1" speed="5.56" shape="1044.57,381.56 1031.30,352.95 1021.71,335.59 1008.95,323.95" disallow="tram rail_urban rail rail_electric rail_fast ship container cable_car subway aircraft wheelchair scooter drone"/>
    <edge id="-1189844413#1" from="10727788729" to="12563626269" priority="12" type="highway.primary" numLanes="1" speed="5.56" disallow="tram rail_urban rail rail_electric rail_fast ship container cable_car subway aircraft wheelchair scooter drone"/>
    <edge id="-1189844413#2" from="12563626270" to="10727788729" priority="12" type="highway.primary" numLanes="1" speed="5.56" disallow="tram rail_urban rail rail_electric rail_fast ship container cable_car subway aircraft wheelchair scooter drone"/>
    <edge id="-1189844413#3" from="10808035992" to="12563626270" priority="12" type="highway.primary" numLanes="1" speed="5.56" disallow="tram rail_urban rail rail_electric rail_fast ship container cable_car subway aircraft wheelchair scooter drone"/>
    <edge id="-1189844413#4" from="1127142146" to="10808035992" priority="12" type="highway.primary" numLanes="1" speed="5.56" shape="1082.35,452.42 1073.61,441.28 1071.24,436.83 1063.57,422.51 1056.17,406.55" disallow="tram rail_urban rail rail_electric rail_fast ship container cable_car subway aircraft wheelchair scooter drone"/>
    <edge id="-1189844413#5" from="1127211062" to="1127142146" priority="12" type="highway.primary" numLanes="1" speed="5.56" shape="1102.48,466.92 1090.45,461.56 1082.35,452.42" disallow="tram rail_urban rail rail_electric rail_fast ship container cable_car subway aircraft wheelchair scooter drone"/>
    <edge id="-1190671858" from="11055432755" to="11055432754" priority="1" type="highway.service" numLanes="1" speed="5.56" shape="947.88,310.56 948.12,301.73 948.55,285.98" allow="pedestrian delivery bicycle"/>
    <edge id="-1190703469#0" from="1127141529" to="1127141531" priority="11" type="highway.secondary" numLanes="1" speed="5.56" disallow="tram rail_urban rail rail_electric rail_fast ship container cable_car subway aircraft wheelchair scooter drone"/>
    <edge id="-1190703469#1" from="1127141527" to="1127141529" priority="11" type="highway.secondary" numLanes="1" speed="5.56" disallow="tram rail_urban rail rail_electric rail_fast ship container cable_car subway aircraft wheelchair scooter drone"/>
    <edge id="-1190703470#0" from="1127141533" to="1127141539" priority="11" type="highway.secondary" numLanes="1" speed="5.56" shape="1726.20,868.74 1710.19,872.46 1672.45,881.21" disallow="tram rail_urban rail rail_electric rail_fast ship container cable_car subway aircraft wheelchair scooter drone"/>
    <edge id="-1190703470#1" from="1127141531" to="1127141533" priority="11" type="highway.secondary" numLanes="1" speed="5.56" disallow="tram rail_urban rail rail_electric rail_fast ship container cable_car subway aircraft wheelchair scooter drone"/>
    <edge id="-1190703471" from="1127950253" to="11055708055" priority="11" type="highway.secondary" numLanes="1" speed="27.78" shape="1530.05,914.22 1496.21,921.55 1487.61,923.37" disallow="tram rail_urban rail rail_electric rail_fast ship container cable_car subway aircraft wheelchair scooter drone"/>
    <edge id="-1190706510" from="1127141591" to="1127141570" priority="3" type="highway.residential" numLanes="1" speed="13.89" shape="1388.99,796.62 1389.80,811.53 1380.42,929.76" disallow="tram rail_urban rail rail_electric rail_fast ship container cable_car subway aircraft wheelchair scooter drone"/>
    <edge id="-1190706511" from="11055738000" to="1127141591" priority="3" type="highway.residential" numLanes="1" speed="13.89" disallow="tram rail_urban rail rail_electric rail_fast ship container cable_car subway aircraft wheelchair scooter drone"/>
    <edge id="-1190957330#0" from="1127950095" to="10807970142" priority="3" type="highway.residential" numLanes="1" speed="13.89" disallow="tram rail_urban rail rail_electric rail_fast ship container cable_car subway aircraft wheelchair scooter drone"/>
    <edge id="-1190957330#1" from="1127950097" to="1127950095" priority="3" type="highway.residential" numLanes="1" speed="13.89" disallow="tram rail_urban rail rail_electric rail_fast ship container cable_car subway aircraft wheelchair scooter drone"/>
    <edge id="-1191352630" from="1127950093" to="1127950027" priority="3" type="highway.residential" numLanes="1" speed="13.89" disallow="tram rail_urban rail rail_electric rail_fast ship container cable_car subway aircraft wheelchair scooter drone"/>
    <edge id="-1191352631" from="1127950040" to="1127950044" priority="3" type="highway.residential" numLanes="1" speed="13.89" disallow="tram rail_urban rail rail_electric rail_fast ship container cable_car subway aircraft wheelchair scooter drone"/>
    <edge id="-1191352632#0" from="1127950037" to="10807970143" priority="3" type="highway.residential" numLanes="1" speed="13.89" disallow="tram rail_urban rail rail_electric rail_fast ship container cable_car subway aircraft wheelchair scooter drone"/>
    <edge id="-1191352632#1" from="11055738001" to="1127950037" priority="3" type="highway.residential" numLanes="1" speed="13.89" disallow="tram rail_urban rail rail_electric rail_fast ship container cable_car subway aircraft wheelchair scooter drone"/>
    <edge id="-1191607152#0" from="13427220835" to="1127210294" priority="12" type="highway.primary" numLanes="1" speed="5.56" disallow="tram rail_urban rail rail_electric rail_fast ship container cable_car subway aircraft wheelchair scooter drone"/>
    <edge id="-1191607152#1" from="10727641895" to="13427220835" priority="12" type="highway.primary" numLanes="1" speed="5.56" disallow="tram rail_urban rail rail_electric rail_fast ship container cable_car subway aircraft wheelchair scooter drone"/>
    <edge id="-1191607152#2" from="13427220836" to="10727641895" priority="12" type="highway.primary" numLanes="1" speed="5.56" disallow="tram rail_urban rail rail_electric rail_fast ship container cable_car subway aircraft wheelchair scooter drone"/>
    <edge id="-1191607152#3" from="1127142141" to="13427220836" priority="12" type="highway.primary" numLanes="1" speed="5.56" disallow="tram rail_urban rail rail_electric rail_fast ship container cable_car subway aircraft wheelchair scooter drone"/>
    <edge id="-1191607153" from="11063339874" to="1127211062" priority="12" type="highway.primary" numLanes="1" speed="8.33" shape="1187.50,438.33 1171.08,453.29 1168.62,455.54 1160.07,464.66 1148.97,469.69 1134.43,471.54 1131.23,471.96 1113.50,470.46 1102.48,466.92" disallow="tram rail_urban rail rail_electric rail_fast ship container cable_car subway aircraft wheelchair scooter drone"/>
    <edge id="-1191607154" from="11063339876" to="11063339874" priority="12" type="highway.primary" numLanes="1" speed="5.56" shape="1216.57,412.71 1203.92,423.36 1202.17,424.96 1187.50,438.33" disallow="tram rail_urban rail rail_electric rail_fast ship container cable_car subway aircraft wheelchair scooter drone"/>
    <edge id="-1205309313" from="11170429332" to="10774662145" priority="1" type="highway.service" numLanes="1" speed="5.56" shape="1033.66,407.60 1050.75,443.37 1057.35,448.06 1066.04,451.50" allow="pedestrian delivery bicycle"/>
    <edge id="-1205345021" from="11170707476" to="11170733480" priority="1" type="highway.path" numLanes="1" speed="5.56" shape="877.37,388.42 879.98,376.39 880.36,357.11 884.11,338.27 885.76,330.99 888.13,325.24 890.27,312.62 891.13,306.00" width="2.00" allow="pedestrian bicycle"/>
    <edge id="-1211338607#0" from="11170733480" to="11063339873" priority="12" type="highway.primary" numLanes="1" speed="5.56" disallow="tram rail_urban rail rail_electric rail_fast ship container cable_car subway aircraft wheelchair scooter drone"/>
    <edge id="-1211338607#1" from="13042285410" to="11170733480" priority="12" type="highway.primary" numLanes="1" speed="5.56" disallow="tram rail_urban rail rail_electric rail_fast ship container cable_car subway aircraft wheelchair scooter drone"/>
    <edge id="-1211338607#2" from="11055432755" to="13042285410" priority="12" type="highway.primary" numLanes="1" speed="5.56" disallow="tram rail_urban rail rail_electric rail_fast ship container cable_car subway aircraft wheelchair scooter drone"/>
    <edge id="-1302707443" from="12064794163" to="12064794162" priority="1" type="highway.service" numLanes="1" speed="5.56" allow="pedestrian delivery bicycle"/>
    <edge id="-1322988330" from="12242108653" to="12242108652" priority="1" type="highway.service" numLanes="1" speed="5.56" allow="pedestrian delivery bicycle"/>
    <edge id="-1348695607#0" from="1127950024" to="1127141568" priority="11" type="highway.secondary" numLanes="1" speed="8.33" disallow="tram rail_urban rail rail_electric rail_fast ship container cable_car subway aircraft wheelchair scooter drone"/>
    <edge id="-1348695607#1" from="1127950003" to="1127950024" priority="11" type="highway.secondary" numLanes="1" speed="8.33" disallow="tram rail_urban rail rail_electric rail_fast ship container cable_car subway aircraft wheelchair scooter drone"/>
    <edge id="-1348695607#2" from="1127949989" to="1127950003" priority="11" type="highway.secondary" numLanes="1" speed="8.33" shape="1323.27,932.57 1317.50,932.53 1275.11,932.24" disallow="tram rail_urban rail rail_electric rail_fast ship container cable_car subway aircraft wheelchair scooter drone"/>
    <edge id="-1349665964#0" from="1127210793" to="1127950064" priority="12" type="highway.primary" numLanes="1" speed="5.56" disallow="tram rail_urban rail rail_electric rail_fast ship container cable_car subway aircraft wheelchair scooter drone"/>
    <edge id="-1349665964#1" from="1127950185" to="1127210793" priority="12" type="highway.primary" numLanes="1" speed="5.56" disallow="tram rail_urban rail rail_electric rail_fast ship container cable_car subway aircraft wheelchair scooter drone"/>
    <edge id="-1349665964#2" from="1127141555" to="1127950185" priority="12" type="highway.primary" numLanes="1" speed="5.56" disallow="tram rail_urban rail rail_electric rail_fast ship container cable_car subway aircraft wheelchair scooter drone"/>
    <edge id="-1349665965" from="1127210713" to="11063339876" priority="12" type="highway.primary" numLanes="1" speed="5.56" shape="1260.93,390.81 1240.83,396.63 1222.16,408.00 1216.57,412.71" disallow="tram rail_urban rail rail_electric rail_fast ship container cable_car subway aircraft wheelchair scooter drone"/>
    <edge id="-1349665966" from="1127950188" to="1127950185" priority="3" type="highway.residential" numLanes="1" speed="13.89" disallow="tram rail_urban rail rail_electric rail_fast ship container cable_car subway aircraft wheelchair scooter drone"/>
    <edge id="-1350084437" from="1127210294" to="11055432755" priority="12" type="highway.primary" numLanes="1" speed="5.56" disallow="tram rail_urban rail rail_electric rail_fast ship container cable_car subway aircraft wheelchair scooter drone"/>
    <edge id="-1350084439" from="12489324188" to="12489324186" priority="1" type="highway.service" numLanes="1" speed="5.56" shape="996.17,408.92 992.48,440.79 979.80,439.42" allow="pedestrian delivery bicycle"/>
    <edge id="-1350084440" from="12489324191" to="12489324186" priority="1" type="highway.service" numLanes="1" speed="5.56" shape="980.06,405.04 977.04,434.15 980.31,434.43 979.80,439.42" allow="pedestrian delivery bicycle"/>
    <edge id="-1350695814#0" from="12496154973" to="12496154968" priority="1" type="highway.service" numLanes="1" speed="5.56" shape="916.21,249.57 885.49,248.82 832.71,293.52 832.43,295.19 831.39,301.19" allow="pedestrian delivery bicycle"/>
    <edge id="-1350695814#1" from="12496154971" to="12496154973" priority="1" type="highway.service" numLanes="1" speed="5.56" allow="pedestrian delivery bicycle"/>
    <edge id="-1356693268#0" from="1127141548" to="1126253011" priority="3" type="highway.residential" numLanes="1" speed="13.89" disallow="tram rail_urban rail rail_electric rail_fast ship container cable_car subway aircraft wheelchair scooter drone"/>
    <edge id="-1356693268#1" from="1126253016" to="1127141548" priority="3" type="highway.residential" numLanes="1" speed="13.89" disallow="tram rail_urban rail rail_electric rail_fast ship container cable_car subway aircraft wheelchair scooter drone"/>
    <edge id="-1358117425" from="12568360525" to="12568360524" priority="1" type="highway.service" numLanes="1" speed="5.56" allow="pedestrian delivery bicycle"/>
    <edge id="-1358117427" from="12568360531" to="12568360530" priority="1" type="highway.service" numLanes="1" speed="5.56" allow="pedestrian delivery bicycle"/>
    <edge id="-1359427231#0" from="12583319800" to="1127949293" priority="11" type="highway.secondary" numLanes="1" speed="27.78" disallow="tram rail_urban rail rail_electric rail_fast ship container cable_car subway aircraft wheelchair scooter drone"/>
    <edge id="-1359427231#1" from="1127950266" to="12583319800" priority="11" type="highway.secondary" numLanes="1" speed="27.78" disallow="tram rail_urban rail rail_electric rail_fast ship container cable_car subway aircraft wheelchair scooter drone"/>
    <edge id="-1359427231#2" from="1127950114" to="1127950266" priority="11" type="highway.secondary" numLanes="1" speed="27.78" disallow="tram rail_urban rail rail_electric rail_fast ship container cable_car subway aircraft wheelchair scooter drone"/>
    <edge id="-1359427232#0" from="11062621405" to="1128276806" priority="11" type="highway.secondary" numLanes="1" speed="27.78" shape="929.41,768.98 930.87,754.04 934.38,718.10" disallow="tram rail_urban rail rail_electric rail_fast ship container cable_car subway aircraft wheelchair scooter drone"/>
    <edge id="-1359427232#1" from="1127950028" to="11062621405" priority="11" type="highway.secondary" numLanes="1" speed="27.78" disallow="tram rail_urban rail rail_electric rail_fast ship container cable_car subway aircraft wheelchair scooter drone"/>
    <edge id="-1359427232#2" from="11062621402" to="1127950028" priority="11" type="highway.secondary" numLanes="1" speed="27.78" disallow="tram rail_urban rail rail_electric rail_fast ship container cable_car subway aircraft wheelchair scooter drone"/>