<?xml version="1.0" encoding="UTF-8"?>

<!-- generated on 2026-05-20T02:49:23.929396+03:00 by Eclipse SUMO netconvert 1.26.0
<netconvertConfiguration xmlns:xsi="http://www.w3.org/2001/XMLSchema-instance" xsi:noNamespaceSchemaLocation="http://sumo.dlr.de/xsd/netconvertConfiguration.xsd">

    <input>
        <sumo-net-file value=".\map.net.xml"/>
    </input>

    <output>
        <plain-output-prefix value="check"/>
    </output>

    <processing>
        <geometry.min-radius.fix.railways value="false"/>
        <geometry.avoid-overlap value="false"/>
        <geometry.max-grade.fix value="false"/>
        <offset.disable-normalization value="true"/>
        <lefthand value="0"/>
    </processing>

    <junctions>
        <no-turnarounds value="true"/>
        <junctions.corner-detail value="5"/>
        <junctions.limit-turn-speed value="5.50"/>
        <rectangular-lane-cut value="0"/>
    </junctions>

    <pedestrian>
        <walkingareas value="0"/>
    </pedestrian>

</netconvertConfiguration>
-->

<connections version="1.20" xmlns:xsi="http://www.w3.org/2001/XMLSchema-instance" xsi:noNamespaceSchemaLocation="http://sumo.dlr.de/xsd/connections_file.xsd">
    <connection from="-1025497533" to="-1419294837#1" fromLane="0" toLane="0"/>
    <connection from="-1025497533" to="1419294837#2" fromLane="0" toLane="0"/>
    <connection from="-1025497533" to="1025497533" fromLane="0" toLane="0"/>

    <connection from="-1032663051#0" to="1032663051#0" fromLane="0" toLane="0"/>

    <connection from="-1032663051#1" to="-1153465384#1" fromLane="0" toLane="0"/>
    <connection from="-1032663051#1" to="-1032663051#0" fromLane="0" toLane="0"/>
    <connection from="-1032663051#1" to="1032663051#1" fromLane="0" toLane="0"/>

    <connection from="-1064570318#0" to="-1359427232#3" fromLane="0" toLane="0"/>
    <connection from="-1064570318#0" to="1359427231#0" fromLane="0" toLane="0"/>
    <connection from="-1064570318#0" to="1064570318#0" fromLane="0" toLane="0"/>

    <connection from="-1064570318#1" to="-1064570318#0" fromLane="0" toLane="0"/>
    <connection from="-1064570318#1" to="-97422534" fromLane="0" toLane="0"/>
    <connection from="-1064570318#1" to="1064570318#1" fromLane="0" toLane="0"/>

    <connection from="-1064570318#2" to="97422518#0" fromLane="0" toLane="0"/>
    <connection from="-1064570318#2" to="-1064570318#1" fromLane="0" toLane="0"/>
    <connection from="-1064570318#2" to="1064570318#2" fromLane="0" toLane="0"/>

    <connection from="-1153465383#0" to="97388544#1" fromLane="0" toLane="0"/>
    <connection from="-1153465383#0" to="-97388544#0" fromLane="0" toLane="0"/>
    <connection from="-1153465383#0" to="1153465383#0" fromLane="0" toLane="0"/>

    <connection from="-1153465383#1" to="-97388537#2" fromLane="0" toLane="0"/>
    <connection from="-1153465383#1" to="-1153465383#0" fromLane="0" toLane="0"/>
    <connection from="-1153465383#1" to="1153465383#1" fromLane="0" toLane="0"/>

    <connection from="-1153465384#0" to="-1189844409#0" fromLane="0" toLane="0"/>
    <connection from="-1153465384#0" to="1189844409#1" fromLane="0" toLane="0"/>
    <connection from="-1153465384#0" to="1153465384#0" fromLane="0" toLane="0"/>

    <connection from="-1153465384#1" to="97388373#0" fromLane="0" toLane="0"/>
    <connection from="-1153465384#1" to="-1153465384#0" fromLane="0" toLane="0"/>
    <connection from="-1153465384#1" to="1153465384#1" fromLane="0" toLane="0"/>

    <connection from="-1153465385" to="-1350084437" fromLane="0" toLane="0"/>
    <connection from="-1153465385" to="1191607152#0" fromLane="0" toLane="0"/>
    <connection from="-1153465385" to="1153465385" fromLane="0" toLane="0"/>

    <connection from="-1153465386" to="-97388516#4" fromLane="0" toLane="0"/>

    <connection from="-1153465387#0" to="-1359427235" fromLane="0" toLane="0"/>
    <connection from="-1153465387#0" to="1359427233#0" fromLane="0" toLane="0"/>
    <connection from="-1153465387#0" to="1153465387#0" fromLane="0" toLane="0"/>

    <connection from="-1153465387#1" to="-1153465387#0" fromLane="0" toLane="0"/>

    <connection from="-1153465387#2" to="1358117427" fromLane="0" toLane="0"/>
    <connection from="-1153465387#2" to="-1153465387#1" fromLane="0" toLane="0"/>

    <connection from="-1153465387#3" to="-1153465387#2" fromLane="0" toLane="0"/>

    <connection from="-1153465387#4" to="1358117425" fromLane="0" toLane="0"/>
    <connection from="-1153465387#4" to="-1153465387#3" fromLane="0" toLane="0"/>

    <connection from="-1153479158#0" to="97332995#0" fromLane="0" toLane="0"/>
    <connection from="-1153479158#0" to="-1153465385" fromLane="0" toLane="0"/>

    <connection from="-1153479158#1" to="-1153479158#0" fromLane="0" toLane="0"/>
    <connection from="-1153479158#1" to="-1176361874" fromLane="0" toLane="0"/>

    <connection from="-1153479162#0" to="-1359427231#2" fromLane="0" toLane="0"/>
    <connection from="-1153479162#0" to="97388522#0" fromLane="0" toLane="0"/>
    <connection from="-1153479162#0" to="1153479162#0" fromLane="0" toLane="0"/>

    <connection from="-1153479162#1" to="-1153479162#0" fromLane="0" toLane="0"/>

    <connection from="-1153479162#2" to="97388354" fromLane="0" toLane="0"/>
    <connection from="-1153479162#2" to="-1153479162#1" fromLane="0" toLane="0"/>
    <connection from="-1153479162#2" to="1153479162#2" fromLane="0" toLane="0"/>

    <connection from="-1153486211#0" to="1153486211#0" fromLane="0" toLane="0"/>

    <connection from="-1153486211#1" to="-97208933#0" fromLane="0" toLane="0"/>
    <connection from="-1153486211#1" to="-1153486211#0" fromLane="0" toLane="0"/>
    <connection from="-1153486211#1" to="97208933#1" fromLane="0" toLane="0"/>
    <connection from="-1153486211#1" to="1153486211#1" fromLane="0" toLane="0"/>

    <connection from="-1153486212#0" to="-681288377" fromLane="0" toLane="0"/>
    <connection from="-1153486212#0" to="-1153486211#1" fromLane="0" toLane="0"/>
    <connection from="-1153486212#0" to="1153486212#0" fromLane="0" toLane="0"/>

    <connection from="-1153486212#1" to="97388553#0" fromLane="0" toLane="0"/>
    <connection from="-1153486212#1" to="-1153486212#0" fromLane="0" toLane="0"/>
    <connection from="-1153486212#1" to="1153486212#1" fromLane="0" toLane="0"/>

    <connection from="-1153486212#2" to="-97326313#3" fromLane="0" toLane="0"/>
    <connection from="-1153486212#2" to="-1153486212#1" fromLane="0" toLane="0"/>
    <connection from="-1153486212#2" to="1153486212#2" fromLane="0" toLane="0"/>

    <connection from="-1153486212#3" to="97326390#2" fromLane="0" toLane="0"/>
    <connection from="-1153486212#3" to="-1153486212#2" fromLane="0" toLane="0"/>
    <connection from="-1153486212#3" to="-97326390#1" fromLane="0" toLane="0"/>
    <connection from="-1153486212#3" to="1153486212#3" fromLane="0" toLane="0"/>

    <connection from="-1153486212#4" to="-1153486212#3" fromLane="0" toLane="0"/>
    <connection from="-1153486212#4" to="228836729" fromLane="0" toLane="0"/>
    <connection from="-1153486212#4" to="1153486212#4" fromLane="0" toLane="0"/>

    <connection from="-1153486212#5" to="97326348#0" fromLane="0" toLane="0"/>
    <connection from="-1153486212#5" to="-1153486212#4" fromLane="0" toLane="0"/>
    <connection from="-1153486212#5" to="1153486212#5" fromLane="0" toLane="0"/>

    <connection from="-1153486214" to="1153486214" fromLane="0" toLane="0"/>

    <connection from="-1158596643#0" to="-1189844413#4" fromLane="0" toLane="0"/>
    <connection from="-1158596643#0" to="1189844413#5" fromLane="0" toLane="0"/>
    <connection from="-1158596643#0" to="1158596643#0" fromLane="0" toLane="0"/>

    <connection from="-1158596643#1" to="1158596644" fromLane="0" toLane="0"/>
    <connection from="-1158596643#1" to="-1158596643#0" fromLane="0" toLane="0"/>
    <connection from="-1158596643#1" to="1158596643#1" fromLane="0" toLane="0"/>

    <connection from="-1158596644" to="-1158596643#0" fromLane="0" toLane="0"/>
    <connection from="-1158596644" to="1158596643#1" fromLane="0" toLane="0"/>
    <connection from="-1158596644" to="1158596644" fromLane="0" toLane="0"/>

    <connection from="-1162122758" to="1162122758" fromLane="0" toLane="0"/>

    <connection from="-1162122759" to="1162122759" fromLane="0" toLane="0"/>

    <connection from="-1162126200#0" to="-337257892#1" fromLane="0" toLane="0"/>

    <connection from="-1162126200#1" to="-1162126200#0" fromLane="0" toLane="0"/>
    <connection from="-1162126200#1" to="1162126200#1" fromLane="0" toLane="0"/>

    <connection from="-1162136753" to="1189844413#4" fromLane="0" toLane="0"/>
    <connection from="-1162136753" to="-1189844413#3" fromLane="0" toLane="0"/>
    <connection from="-1162136753" to="1162136753" fromLane="0" toLane="0"/>

    <connection from="-1176361869#0" to="97388516#4" fromLane="0" toLane="0"/>
    <connection from="-1176361869#0" to="-97388516#3" fromLane="0" toLane="0"/>
    <connection from="-1176361869#0" to="1176361869#0" fromLane="0" toLane="0"/>

    <connection from="-1176361869#1" to="-1176361869#0" fromLane="0" toLane="0"/>
    <connection from="-1176361869#1" to="1176361869#1" fromLane="0" toLane="0"/>

    <connection from="-1176361870" to="1176361870" fromLane="0" toLane="0"/>

    <connection from="-1176361874" to="1350084440" fromLane="0" toLane="0"/>
    <connection from="-1176361874" to="1350084439" fromLane="0" toLane="0"/>
    <connection from="-1176361874" to="1176361874" fromLane="0" toLane="0"/>

    <connection from="-1176361875" to="1350084438#0" fromLane="0" toLane="0"/>
    <connection from="-1176361875" to="-1191607152#3" fromLane="0" toLane="0"/>
    <connection from="-1176361875" to="-1185593291#1" fromLane="0" toLane="0"/>
    <connection from="-1176361875" to="1189844413#0" fromLane="0" toLane="0"/>
    <connection from="-1176361875" to="1176361875" fromLane="0" toLane="0"/>

    <connection from="-1185593287" to="1185593287" fromLane="0" toLane="0"/>

    <connection from="-1185593291#0" to="-97333043" fromLane="0" toLane="0"/>

    <connection from="-1185593291#1" to="-1185593291#0" fromLane="0" toLane="0"/>

    <connection from="-1189844401#0" to="-1359427233#3" fromLane="0" toLane="0"/>
    <connection from="-1189844401#0" to="1359427232#0" fromLane="0" toLane="0"/>
    <connection from="-1189844401#0" to="1189844401#0" fromLane="0" toLane="0"/>

    <connection from="-1189844401#1" to="-1189844401#0" fromLane="0" toLane="0"/>
    <connection from="-1189844401#1" to="1302707443" fromLane="0" toLane="0"/>

    <connection from="-1189844401#2" to="97422518#2" fromLane="0" toLane="0"/>
    <connection from="-1189844401#2" to="-1189844401#1" fromLane="0" toLane="0"/>
    <connection from="-1189844401#2" to="-97422518#1" fromLane="0" toLane="0"/>
    <connection from="-1189844401#2" to="1189844401#2" fromLane="0" toLane="0"/>

    <connection from="-1189844403" to="1189844403" fromLane="0" toLane="0"/>

    <connection from="-1189844409#0" to="-97388365#2" fromLane="0" toLane="0"/>
    <connection from="-1189844409#0" to="-1153479158#1" fromLane="0" toLane="0"/>
    <connection from="-1189844409#0" to="1189844409#0" fromLane="0" toLane="0"/>

    <connection from="-1189844409#1" to="1153465384#0" fromLane="0" toLane="0"/>
    <connection from="-1189844409#1" to="-1189844409#0" fromLane="0" toLane="0"/>
    <connection from="-1189844409#1" to="1189844409#1" fromLane="0" toLane="0"/>

    <connection from="-1189844410" to="-97388373#1" fromLane="0" toLane="0" keepClear="0"/>

    <connection from="-1189844413#0" to="1176361875" fromLane="0" toLane="0"/>
    <connection from="-1189844413#0" to="1350084438#0" fromLane="0" toLane="0"/>
    <connection from="-1189844413#0" to="-1191607152#3" fromLane="0" toLane="0"/>
    <connection from="-1189844413#0" to="-1185593291#1" fromLane="0" toLane="0"/>
    <connection from="-1189844413#0" to="1189844413#0" fromLane="0" toLane="0"/>

    <connection from="-1189844413#1" to="-1189844413#0" fromLane="0" toLane="0"/>

    <connection from="-1189844413#2" to="-1189844413#1" fromLane="0" toLane="0"/>

    <connection from="-1189844413#3" to="-1189844413#2" fromLane="0" toLane="0"/>

    <connection from="-1189844413#4" to="-1189844413#3" fromLane="0" toLane="0"/>
    <connection from="-1189844413#4" to="1162136753" fromLane="0" toLane="0"/>

    <connection from="-1189844413#5" to="1158596643#0" fromLane="0" toLane="0"/>
    <connection from="-1189844413#5" to="-1189844413#4" fromLane="0" toLane="0"/>

    <connection from="-1190671858" to="1190671858" fromLane="0" toLane="0"/>

    <connection from="-1190703469#0" to="-1190703470#1" fromLane="0" toLane="0"/>
    <connection from="-1190703469#0" to="1190703469#0" fromLane="0" toLane="0"/>

    <connection from="-1190703469#1" to="-1190703469#0" fromLane="0" toLane="0"/>
    <connection from="-1190703469#1" to="97326332" fromLane="0" toLane="0"/>
    <connection from="-1190703469#1" to="1190703469#1" fromLane="0" toLane="0"/>

    <connection from="-1190703470#0" to="-227740180#3" fromLane="0" toLane="0"/>
    <connection from="-1190703470#0" to="1190703470#0" fromLane="0" toLane="0"/>

    <connection from="-1190703470#1" to="-1190703470#0" fromLane="0" toLane="0"/>
    <connection from="-1190703470#1" to="97326336" fromLane="0" toLane="0"/>
    <connection from="-1190703470#1" to="1190703470#1" fromLane="0" toLane="0"/>

    <connection from="-1190703471" to="-217761292#4" fromLane="0" toLane="0"/>

    <connection from="-1190706510" to="217761292#2" fromLane="0" toLane="0"/>
    <connection from="-1190706510" to="-217761292#1" fromLane="0" toLane="0"/>
    <connection from="-1190706510" to="1190706510" fromLane="0" toLane="0"/>

    <connection from="-1190706511" to="-1190706510" fromLane="0" toLane="0"/>

    <connection from="-1190957330#0" to="97388525#0" fromLane="0" toLane="0"/>
    <connection from="-1190957330#0" to="-1359427239#2" fromLane="0" toLane="0"/>
    <connection from="-1190957330#0" to="1190957330#0" fromLane="0" toLane="0"/>

    <connection from="-1190957330#1" to="209362787#2" fromLane="0" toLane="0"/>
    <connection from="-1190957330#1" to="-1190957330#0" fromLane="0" toLane="0"/>
    <connection from="-1190957330#1" to="-209362787#1" fromLane="0" toLane="0"/>
    <connection from="-1190957330#1" to="1190957330#1" fromLane="0" toLane="0"/>

    <connection from="-1191352630" to="97388507#1" fromLane="0" toLane="0"/>
    <connection from="-1191352630" to="-97388507#0" fromLane="0" toLane="0"/>
    <connection from="-1191352630" to="1191352630" fromLane="0" toLane="0"/>

    <connection from="-1191352631" to="97388510#1" fromLane="0" toLane="0"/>
    <connection from="-1191352631" to="-97388510#0" fromLane="0" toLane="0"/>
    <connection from="-1191352631" to="1191352631" fromLane="0" toLane="0"/>

    <connection from="-1191352632#0" to="-97388509#1" fromLane="0" toLane="0"/>
    <connection from="-1191352632#0" to="97388509#2" fromLane="0" toLane="0"/>
    <connection from="-1191352632#0" to="1191352632#0" fromLane="0" toLane="0"/>

    <connection from="-1191352632#1" to="97388508#2" fromLane="0" toLane="0"/>
    <connection from="-1191352632#1" to="-1191352632#0" fromLane="0" toLane="0"/>
    <connection from="-1191352632#1" to="-97388508#1" fromLane="0" toLane="0"/>
    <connection from="-1191352632#1" to="1191352632#1" fromLane="0" toLane="0"/>

    <connection from="-1191607152#0" to="1153465385" fromLane="0" toLane="0"/>
    <connection from="-1191607152#0" to="-1350084437" fromLane="0" toLane="0"/>
    <connection from="-1191607152#0" to="1191607152#0" fromLane="0" toLane="0"/>

    <connection from="-1191607152#1" to="-1191607152#0" fromLane="0" toLane="0"/>

    <connection from="-1191607152#2" to="-1191607152#1" fromLane="0" toLane="0"/>

    <connection from="-1191607152#3" to="-1191607152#2" fromLane="0" toLane="0"/>

    <connection from="-1191607153" to="-1189844413#5" fromLane="0" toLane="0"/>

    <connection from="-1191607154" to="-1191607153" fromLane="0" toLane="0"/>

    <connection from="-1205309313" to="-1158596644" fromLane="0" toLane="0"/>

    <connection from="-1205345021" to="-1211338607#0" fromLane="0" toLane="0"/>
    <connection from="-1205345021" to="1211338607#1" fromLane="0" toLane="0"/>
    <connection from="-1205345021" to="1205345021" fromLane="0" toLane="0"/>

    <connection from="-1211338607#0" to="-97176013#1" fromLane="0" toLane="0"/>

    <connection from="-1211338607#1" to="1205345021" fromLane="0" toLane="0"/>
    <connection from="-1211338607#1" to="-1211338607#0" fromLane="0" toLane="0"/>

    <connection from="-1211338607#2" to="-1211338607#1" fromLane="0" toLane="0"/>

    <connection from="-1302707443" to="1189844401#1" fromLane="0" toLane="0"/>
    <connection from="-1302707443" to="-1189844401#0" fromLane="0" toLane="0"/>
    <connection from="-1302707443" to="1302707443" fromLane="0" toLane="0"/>

    <connection from="-1322988330" to="1359427239#2" fromLane="0" toLane="0"/>
    <connection from="-1322988330" to="-1359427239#1" fromLane="0" toLane="0"/>
    <connection from="-1322988330" to="1322988330" fromLane="0" toLane="0"/>

    <connection from="-1348695607#0" to="97333037#11" fromLane="0" toLane="0"/>
    <connection from="-1348695607#0" to="209362787#0" fromLane="0" toLane="0"/>
    <connection from="-1348695607#0" to="-97333037#10" fromLane="0" toLane="0"/>
    <connection from="-1348695607#0" to="1348695607#0" fromLane="0" toLane="0"/>

    <connection from="-1348695607#1" to="-97388506#2" fromLane="0" toLane="0"/>
    <connection from="-1348695607#1" to="-1348695607#0" fromLane="0" toLane="0"/>
    <connection from="-1348695607#1" to="1190703474" fromLane="0" toLane="0"/>
    <connection from="-1348695607#1" to="1348695607#1" fromLane="0" toLane="0"/>

    <connection from="-1348695607#2" to="97388487#0" fromLane="0" toLane="0"/>
    <connection from="-1348695607#2" to="-1348695607#1" fromLane="0" toLane="0"/>
    <connection from="-1348695607#2" to="1348695607#2" fromLane="0" toLane="0"/>

    <connection from="-1349665964#0" to="-97388512#1" fromLane="0" toLane="0"/>
    <connection from="-1349665964#0" to="-227740184#2" fromLane="0" toLane="0"/>
    <connection from="-1349665964#0" to="1349665964#0" fromLane="0" toLane="0"/>

    <connection from="-1349665964#1" to="-1349665964#0" fromLane="0" toLane="0"/>
    <connection from="-1349665964#1" to="97333045#0" fromLane="0" toLane="0"/>
    <connection from="-1349665964#1" to="1349665964#1" fromLane="0" toLane="0"/>

    <connection from="-1349665964#2" to="1349665966" fromLane="0" toLane="0"/>
    <connection from="-1349665964#2" to="-1349665964#1" fromLane="0" toLane="0"/>
    <connection from="-1349665964#2" to="1349665964#2" fromLane="0" toLane="0"/>

    <connection from="-1349665965" to="-1191607154" fromLane="0" toLane="0"/>

    <connection from="-1349665966" to="-1349665964#1" fromLane="0" toLane="0"/>
    <connection from="-1349665966" to="1349665964#2" fromLane="0" toLane="0"/>
    <connection from="-1349665966" to="1349665966" fromLane="0" toLane="0"/>

    <connection from="-1350084437" to="-1211338607#2" fromLane="0" toLane="0"/>
    <connection from="-1350084437" to="-1190671858" fromLane="0" toLane="0"/>

    <connection from="-1350084439" to="1176361874" fromLane="0" toLane="0"/>
    <connection from="-1350084439" to="1350084440" fromLane="0" toLane="0"/>
    <connection from="-1350084439" to="1350084439" fromLane="0" toLane="0"/>

    <connection from="-1350084440" to="1350084439" fromLane="0" toLane="0"/>
    <connection from="-1350084440" to="1176361874" fromLane="0" toLane="0"/>
    <connection from="-1350084440" to="1350084440" fromLane="0" toLane="0"/>

    <connection from="-1350695814#0" to="97176013#1" fromLane="0" toLane="0"/>
    <connection from="-1350695814#0" to="-97176013#0" fromLane="0" toLane="0"/>
    <connection from="-1350695814#0" to="1350695814#0" fromLane="0" toLane="0"/>

    <connection from="-1350695814#1" to="-1350695814#0" fromLane="0" toLane="0"/>
    <connection from="-1350695814#1" to="1350695814#1" fromLane="0" toLane="0"/>

    <connection from="-1356693268#0" to="-97226043#1" fromLane="0" toLane="0"/>
    <connection from="-1356693268#0" to="1349665963#1" fromLane="0" toLane="0"/>
    <connection from="-1356693268#0" to="1356693268#0" fromLane="0" toLane="0"/>

    <connection from="-1356693268#1" to="-1356693268#0" fromLane="0" toLane="0"/>
    <connection from="-1356693268#1" to="-97326352#1" fromLane="0" toLane="0"/>
    <connection from="-1356693268#1" to="1356693268#1" fromLane="0" toLane="0"/>

    <connection from="-1358117425" to="-1153465387#3" fromLane="0" toLane="0"/>
    <connection from="-1358117425" to="1153465387#4" fromLane="0" toLane="0"/>
    <connection from="-1358117425" to="1358117425" fromLane="0" toLane="0"/>

    <connection from="-1358117427" to="-1153465387#1" fromLane="0" toLane="0"/>
    <connection from="-1358117427" to="1153465387#2" fromLane="0" toLane="0"/>
    <connection from="-1358117427" to="1358117427" fromLane="0" toLane="0"/>

    <connection from="-1359427231#0" to="1064570318#0" fromLane="0" toLane="0"/>
    <connection from="-1359427231#0" to="-1359427232#3" fromLane="0" toLane="0"/>
    <connection from="-1359427231#0" to="1359427231#0" fromLane="0" toLane="0"/>

    <connection from="-1359427231#1" to="-1359427231#0" fromLane="0" toLane="0"/>
    <connection from="-1359427231#1" to="-97388525#1" fromLane="0" toLane="0"/>
    <connection from="-1359427231#1" to="1359427231#1" fromLane="0" toLane="0"/>

    <connection from="-1359427231#2" to="-1359427231#1" fromLane="0" toLane="0"/>
    <connection from="-1359427231#2" to="-209362787#2" fromLane="0" toLane="0"/>
    <connection from="-1359427231#2" to="1359427231#2" fromLane="0" toLane="0"/>

    <connection from="-1359427232#0" to="1189844401#0" fromLane="0" toLane="0"/>
    <connection from="-1359427232#0" to="-1359427233#3" fromLane="0" toLane="0"/>
    <connection from="-1359427232#0" to="1359427232#0" fromLane="0" toLane="0"/>

    <connection from="-1359427232#1" to="-1359427232#0" fromLane="0" toLane="0"/>

    <connection from="-1359427232#2" to="-1359427232#1" fromLane="0" toLane="0"/>
    <connection from="-1359427232#2" to="-97388507#2" fromLane="0" toLane="0"/>
    <connection from="-1359427232#2" to="1359427232#2" fromLane="0" toLane="0"/>

    <connection from="-1359427232#3" to="-1359427232#2" fromLane="0" toLane="0"/>

    <connection from="-1359427233#0" to="1153465387#0" fromLane="0" toLane="0"/>
    <connection from="-1359427233#0" to="-1359427235" fromLane="0" toLane="0"/>
    <connection from="-1359427233#0" to="1359427233#0" fromLane="0" toLane="0"/>

    <connection from="-1359427233#1" to="-1359427233#0" fromLane="0" toLane="0"/>
    <connection from="-1359427233#1" to="-97388511#2" fromLane="0" toLane="0"/>
    <connection from="-1359427233#1" to="1359427233#1" fromLane="0" toLane="0"/>

    <connection from="-1359427233#2" to="-1359427233#1" fromLane="0" toLane="0"/>
    <connection from="-1359427233#2" to="-97388510#2" fromLane="0" toLane="0"/>
    <connection from="-1359427233#2" to="1359427233#2" fromLane="0" toLane="0"/>

    <connection from="-1359427233#3" to="-1359427233#2" fromLane="0" toLane="0"/>
    <connection from="-1359427233#3" to="97388509#0" fromLane="0" toLane="0"/>
    <connection from="-1359427233#3" to="1359427233#3" fromLane="0" toLane="0"/>

    <connection from="-1359427235" to="-97332994#2" fromLane="0" toLane="0"/>

    <connection from="-1359427236" to="97422518#1" fromLane="0" toLane="0"/>
    <connection from="-1359427236" to="-97422518#0" fromLane="0" toLane="0"/>
    <connection from="-1359427236" to="1359427236" fromLane="0" toLane="0"/>

    <connection from="-1359427239#0" to="-97333037#9" fromLane="0" toLane="0"/>
    <connection from="-1359427239#0" to="97333037#10" fromLane="0" toLane="0"/>
    <connection from="-1359427239#0" to="1359427239#0" fromLane="0" toLane="0"/>

    <connection from="-1359427239#1" to="-1359427239#0" fromLane="0" toLane="0"/>

    <connection from="-1359427239#2" to="-1359427239#1" fromLane="0" toLane="0"/>
    <connection from="-1359427239#2" to="1322988330" fromLane="0" toLane="0"/>

    <connection from="-1359427246#0" to="1359427246#0" fromLane="0" toLane="0"/>

    <connection from="-1359427246#1" to="-1359427246#0" fromLane="0" toLane="0"/>
    <connection from="-1359427246#1" to="1359427247" fromLane="0" toLane="0"/>
    <connection from="-1359427246#1" to="1359427246#1" fromLane="0" toLane="0"/>

    <connection from="-1359427246#2" to="-1359427246#1" fromLane="0" toLane="0"/>
    <connection from="-1359427246#2" to="-1359427247" fromLane="0" toLane="0"/>
    <connection from="-1359427246#2" to="1359427246#2" fromLane="0" toLane="0"/>

    <connection from="-1359427247" to="1359427246#1" fromLane="0" toLane="0"/>
    <connection from="-1359427247" to="-1359427246#0" fromLane="0" toLane="0"/>
    <connection from="-1359427247" to="1359427247" fromLane="0" toLane="0"/>

    <connection from="-1419294837#0" to="-680744217#1" fromLane="0" toLane="0"/>

    <connection from="-1419294837#1" to="-1419294837#0" fromLane="0" toLane="0"/>

    <connection from="-1419294837#2" to="1025497533" fromLane="0" toLane="0"/>
    <connection from="-1419294837#2" to="-1419294837#1" fromLane="0" toLane="0"/>

    <connection from="-1419294837#3" to="-1419294837#2" fromLane="0" toLane="0"/>

    <connection from="-1462031401" to="97226073#9" fromLane="0" toLane="0"/>
    <connection from="-1462031401" to="1462031401" fromLane="0" toLane="0"/>

    <connection from="-1500178588#0" to="97388565" fromLane="0" toLane="0"/>

    <connection from="-1500178588#1" to="-1500178588#0" fromLane="0" toLane="0"/>
    <connection from="-1500178588#1" to="97388556" fromLane="0" toLane="0"/>
    <connection from="-1500178588#1" to="1500178588#1" fromLane="0" toLane="0"/>

    <connection from="-1500178588#2" to="-1500178588#1" fromLane="0" toLane="0"/>
    <connection from="-1500178588#2" to="97388557" fromLane="0" toLane="0"/>
    <connection from="-1500178588#2" to="1500178588#2" fromLane="0" toLane="0"/>

    <connection from="-1500181316" to="1500181316" fromLane="0" toLane="0"/>

    <connection from="-1500181317#0" to="1500181317#0" fromLane="0" toLane="0"/>

    <connection from="-1500181317#1" to="-1500181317#0" fromLane="0" toLane="0"/>
    <connection from="-1500181317#1" to="-1500181316" fromLane="0" toLane="0"/>
    <connection from="-1500181317#1" to="1500181317#1" fromLane="0" toLane="0"/>

    <connection from="-209362787#0" to="-97333037#10" fromLane="0" toLane="0"/>
    <connection from="-209362787#0" to="1348695607#0" fromLane="0" toLane="0"/>
    <connection from="-209362787#0" to="97333037#11" fromLane="0" toLane="0"/>
    <connection from="-209362787#0" to="209362787#0" fromLane="0" toLane="0"/>

    <connection from="-209362787#1" to="-209362787#0" fromLane="0" toLane="0"/>

    <connection from="-209362787#2" to="-1190957330#0" fromLane="0" toLane="0"/>
    <connection from="-209362787#2" to="-209362787#1" fromLane="0" toLane="0"/>
    <connection from="-209362787#2" to="1190957330#1" fromLane="0" toLane="0"/>
    <connection from="-209362787#2" to="209362787#2" fromLane="0" toLane="0"/>

    <connection from="-217761292#0" to="-240551619#1" fromLane="0" toLane="0"/>
    <connection from="-217761292#0" to="-1348695607#2" fromLane="0" toLane="0"/>
    <connection from="-217761292#0" to="337256758" fromLane="0" toLane="0"/>
    <connection from="-217761292#0" to="217761292#0" fromLane="0" toLane="0"/>

    <connection from="-217761292#1" to="-217761292#0" fromLane="0" toLane="0"/>

    <connection from="-217761292#2" to="-217761292#1" fromLane="0" toLane="0"/>
    <connection from="-217761292#2" to="1190706510" fromLane="0" toLane="0"/>
    <connection from="-217761292#2" to="217761292#2" fromLane="0" toLane="0"/>

    <connection from="-217761292#3" to="-217761292#2" fromLane="0" toLane="0"/>
    <connection from="-217761292#3" to="217761292#3" fromLane="0" toLane="0"/>

    <connection from="-217761292#4" to="-217761292#3" fromLane="0" toLane="0"/>
    <connection from="-217761292#4" to="97388550#0" fromLane="0" toLane="0"/>
    <connection from="-217761292#4" to="217761292#4" fromLane="0" toLane="0"/>

    <connection from="-227740180#0" to="-97388561#3" fromLane="0" toLane="0"/>
    <connection from="-227740180#0" to="-1190703471" fromLane="0" toLane="0"/>
    <connection from="-227740180#0" to="227740180#0" fromLane="0" toLane="0"/>

    <connection from="-227740180#1" to="-227740180#0" fromLane="0" toLane="0"/>
    <connection from="-227740180#1" to="97388558#0" fromLane="0" toLane="0"/>
    <connection from="-227740180#1" to="227740180#1" fromLane="0" toLane="0"/>

    <connection from="-227740180#2" to="97326320" fromLane="0" toLane="0"/>
    <connection from="-227740180#2" to="-227740180#1" fromLane="0" toLane="0"/>
    <connection from="-227740180#2" to="227740180#2" fromLane="0" toLane="0"/>

    <connection from="-227740180#3" to="-227740180#2" fromLane="0" toLane="0"/>
    <connection from="-227740180#3" to="227740180#3" fromLane="0" toLane="0"/>

    <connection from="-227740184#0" to="97333037#0" fromLane="0" toLane="0"/>
    <connection from="-227740184#0" to="-1349665965" fromLane="0" toLane="0"/>
    <connection from="-227740184#0" to="-97333039#2" fromLane="0" toLane="0"/>
    <connection from="-227740184#0" to="227740184#0" fromLane="0" toLane="0"/>

    <connection from="-227740184#1" to="97388530#0" fromLane="0" toLane="0"/>
    <connection from="-227740184#1" to="-227740184#0" fromLane="0" toLane="0"/>
    <connection from="-227740184#1" to="227740184#1" fromLane="0" toLane="0"/>

    <connection from="-227740184#2" to="-227740184#1" fromLane="0" toLane="0"/>
    <connection from="-227740184#2" to="-97333046#3" fromLane="0" toLane="0"/>
    <connection from="-227740184#2" to="227740184#2" fromLane="0" toLane="0"/>
