<?xml version="1.0" encoding="UTF-8"?>

<!-- generated on 2026-05-20T02:41:07.446895+03:00 by Eclipse SUMO netconvert 1.26.0
<netconvertConfiguration xmlns:xsi="http://www.w3.org/2001/XMLSchema-instance" xsi:noNamespaceSchemaLocation="http://sumo.dlr.de/xsd/netconvertConfiguration.xsd">

    <input>
        <osm-files value=".\map.osm"/>
    </input>

    <output>
        <output-file value=".\map.net.xml"/>
    </output>

    <projection>
        <proj.utm value="true"/>
    </projection>

</netconvertConfiguration>
-->

<net version="1.20" junctionCornerDetail="5" limitTurnSpeed="5.50" xmlns:xsi="http://www.w3.org/2001/XMLSchema-instance" xsi:noNamespaceSchemaLocation="http://sumo.dlr.de/xsd/net_file.xsd">

    <location netOffset="-642888.13,-4537717.81" convBoundary="0.00,0.00,2689.02,1359.24" origBoundary="28.626236,40.977900,28.797545,41.029922" projParameter="+proj=utm +zone=35 +ellps=WGS84 +datum=WGS84 +units=m +no_defs"/>

    <type id="highway.busway" priority="1" numLanes="1" speed="27.78" allow="bus" oneway="1"/>
    <type id="highway.footway" priority="1" numLanes="1" speed="2.78" allow="pedestrian" oneway="1" width="2.00"/>
    <type id="highway.living_street" priority="2" numLanes="1" speed="2.78" disallow="tram rail_urban rail rail_electric rail_fast ship container cable_car subway aircraft wheelchair scooter drone" oneway="0"/>
    <type id="highway.path" priority="1" numLanes="1" speed="5.56" allow="pedestrian bicycle" oneway="0" width="2.00"/>
    <type id="highway.pedestrian" priority="1" numLanes="1" speed="2.78" allow="pedestrian" oneway="1" width="2.00"/>
    <type id="highway.primary" priority="12" numLanes="2" speed="27.78" disallow="tram rail_urban rail rail_electric rail_fast ship container cable_car subway aircraft wheelchair scooter drone" oneway="0"/>
    <type id="highway.primary_link" priority="7" numLanes="1" speed="22.22" disallow="tram rail_urban rail rail_electric rail_fast ship container cable_car subway aircraft wheelchair scooter drone" oneway="0"/>
    <type id="highway.residential" priority="3" numLanes="1" speed="13.89" disallow="tram rail_urban rail rail_electric rail_fast ship container cable_car subway aircraft wheelchair scooter drone" oneway="0"/>
    <type id="highway.secondary" priority="11" numLanes="1" speed="27.78" disallow="tram rail_urban rail rail_electric rail_fast ship container cable_car subway aircraft wheelchair scooter drone" oneway="0"/>
    <type id="highway.service" priority="1" numLanes="1" speed="5.56" allow="pedestrian delivery bicycle" oneway="0"/>
    <type id="highway.steps" priority="1" numLanes="1" speed="1.39" allow="pedestrian" oneway="1" width="2.00"/>
    <type id="highway.tertiary" priority="10" numLanes="1" speed="22.22" disallow="tram rail_urban rail rail_electric rail_fast ship container cable_car subway aircraft wheelchair scooter drone" oneway="0"/>
    <type id="highway.trunk" priority="13" numLanes="2" speed="27.78" disallow="pedestrian bicycle tram rail_urban rail rail_electric rail_fast ship container cable_car subway aircraft wheelchair scooter drone" oneway="0"/>
    <type id="highway.trunk_link" priority="8" numLanes="1" speed="22.22" disallow="pedestrian bicycle tram rail_urban rail rail_electric rail_fast ship container cable_car subway aircraft wheelchair scooter drone" oneway="0"/>

    <edge id=":10067289163_0" function="internal">
        <lane id=":10067289163_0_0" index="0" disallow="pedestrian bicycle tram rail_urban rail rail_electric rail_fast ship container cable_car subway aircraft wheelchair scooter drone" speed="8.33" length="0.25" shape="1991.45,1223.38 1991.27,1223.64"/>
        <lane id=":10067289163_0_1" index="1" disallow="pedestrian bicycle tram rail_urban rail rail_electric rail_fast ship container cable_car subway aircraft wheelchair scooter drone" speed="8.33" length="0.25" shape="1988.83,1221.55 1988.72,1221.70"/>
    </edge>
    <edge id=":10067289185_0" function="internal">
        <lane id=":10067289185_0_0" index="0" disallow="tram rail_urban rail rail_electric rail_fast ship container cable_car subway aircraft wheelchair scooter drone" speed="27.78" length="16.88" shape="2013.23,949.56 2008.28,933.40"/>
        <lane id=":10067289185_0_1" index="1" disallow="tram rail_urban rail rail_electric rail_fast ship container cable_car subway aircraft wheelchair scooter drone" speed="27.78" length="16.88" shape="2016.29,948.62 2011.35,932.50"/>
    </edge>
    <edge id=":10067289185_2" function="internal">
        <lane id=":10067289185_2_0" index="0" disallow="pedestrian bicycle tram rail_urban rail rail_electric rail_fast ship container cable_car subway aircraft wheelchair scooter drone" speed="18.05" length="11.68" shape="2009.01,944.95 2009.26,941.82 2009.38,939.39 2009.13,936.85 2008.28,933.40"/>
    </edge>
    <edge id=":1064912589_0" function="internal">
        <lane id=":1064912589_0_0" index="0" disallow="pedestrian bicycle tram rail_urban rail rail_electric rail_fast ship container cable_car subway aircraft wheelchair scooter drone" speed="16.66" length="18.49" shape="1869.58,991.81 1866.06,993.03 1862.29,994.35 1857.98,996.30 1852.81,999.44"/>
    </edge>
    <edge id=":1064912589_1" function="internal">
        <lane id=":1064912589_1_0" index="0" disallow="pedestrian bicycle tram rail_urban rail rail_electric rail_fast ship container cable_car subway aircraft wheelchair scooter drone" speed="25.00" length="19.04" shape="1868.04,988.69 1863.11,991.34 1859.45,992.64 1855.83,993.99 1851.01,996.80"/>
        <lane id=":1064912589_1_1" index="1" disallow="pedestrian bicycle tram rail_urban rail rail_electric rail_fast ship container cable_car subway aircraft wheelchair scooter drone" speed="25.00" length="19.04" shape="1866.33,985.99 1861.37,988.65 1857.69,989.96 1854.05,991.33 1849.20,994.16"/>
        <lane id=":1064912589_1_2" index="2" disallow="pedestrian bicycle tram rail_urban rail rail_electric rail_fast ship container cable_car subway aircraft wheelchair scooter drone" speed="25.00" length="19.04" shape="1864.62,983.28 1859.63,985.96 1855.93,987.29 1852.27,988.67 1847.39,991.52"/>
    </edge>
    <edge id=":1064912607_0" function="internal">
        <lane id=":1064912607_0_0" index="0" disallow="tram rail_urban rail rail_electric rail_fast ship container cable_car subway aircraft wheelchair scooter drone" speed="6.54" length="8.72" shape="1845.73,606.58 1844.79,604.84 1843.26,603.80 1841.14,603.47 1838.42,603.84"/>
    </edge>
    <edge id=":1064912607_1" function="internal">
        <lane id=":1064912607_1_0" index="0" disallow="tram rail_urban rail rail_electric rail_fast ship container cable_car subway aircraft wheelchair scooter drone" speed="13.89" length="8.60" shape="1845.73,606.58 1844.62,604.35 1843.30,603.08 1842.03,601.79 1841.05,599.53"/>
    </edge>
    <edge id=":1064912607_2" function="internal">
        <lane id=":1064912607_2_0" index="0" disallow="tram rail_urban rail rail_electric rail_fast ship container cable_car subway aircraft wheelchair scooter drone" speed="27.78" length="8.92" shape="1847.13,601.90 1838.42,603.84"/>
    </edge>
    <edge id=":1064912607_3" function="internal">
        <lane id=":1064912607_3_0" index="0" disallow="tram rail_urban rail rail_electric rail_fast ship container cable_car subway aircraft wheelchair scooter drone" speed="5.99" length="7.31" shape="1847.13,601.90 1844.79,602.16 1843.00,601.86 1841.75,600.98 1841.05,599.53"/>
    </edge>
    <edge id=":1064912617_0" function="internal">
        <lane id=":1064912617_0_0" index="0" disallow="tram rail_urban rail rail_electric rail_fast ship container cable_car subway aircraft wheelchair scooter drone" speed="8.33" length="5.59" shape="2025.66,565.56 2020.20,566.78"/>
    </edge>
    <edge id=":1064912619_0" function="internal">
        <lane id=":1064912619_0_0" index="0" disallow="tram rail_urban rail rail_electric rail_fast ship container cable_car subway aircraft wheelchair scooter drone" speed="18.05" length="13.60" shape="1946.81,582.91 1942.55,583.35 1939.36,583.36 1936.50,583.37 1933.26,583.79"/>
    </edge>
    <edge id=":1064912619_1" function="internal">
        <lane id=":1064912619_1_0" index="0" disallow="tram rail_urban rail rail_electric rail_fast ship container cable_car subway aircraft wheelchair scooter drone" speed="8.01" length="13.31" shape="1946.81,582.91 1943.20,582.97 1940.35,581.90 1938.25,579.69 1936.90,576.34"/>
        <lane id=":1064912619_1_1" index="1" disallow="tram rail_urban rail rail_electric rail_fast ship container cable_car subway aircraft wheelchair scooter drone" speed="6.51" length="8.46" shape="1946.31,579.75 1944.02,579.79 1942.20,579.11 1940.87,577.70 1940.01,575.58"/>
    </edge>
    <edge id=":1064912620_0" function="internal">
        <lane id=":1064912620_0_0" index="0" disallow="tram rail_urban rail rail_electric rail_fast ship container cable_car subway aircraft wheelchair scooter drone" speed="8.33" length="15.98" shape="2044.87,561.33 2029.25,564.69"/>
    </edge>
    <edge id=":1064912788_0" function="internal">
        <lane id=":1064912788_0_0" index="0" disallow="pedestrian bicycle tram rail_urban rail rail_electric rail_fast ship container cable_car subway aircraft wheelchair scooter drone" speed="16.66" length="5.33" shape="1973.37,924.68 1972.12,925.64 1971.32,926.37 1970.59,927.17 1969.52,928.34"/>
    </edge>
    <edge id=":1064912788_1" function="internal">
        <lane id=":1064912788_1_0" index="0" disallow="pedestrian bicycle tram rail_urban rail rail_electric rail_fast ship container cable_car subway aircraft wheelchair scooter drone" speed="25.00" length="13.23" shape="1971.47,922.10 1960.59,929.96"/>
        <lane id=":1064912788_1_1" index="1" disallow="pedestrian bicycle tram rail_urban rail rail_electric rail_fast ship container cable_car subway aircraft wheelchair scooter drone" speed="25.00" length="13.23" shape="1969.58,919.52 1958.86,927.27"/>
        <lane id=":1064912788_1_2" index="2" disallow="pedestrian bicycle tram rail_urban rail rail_electric rail_fast ship container cable_car subway aircraft wheelchair scooter drone" speed="25.00" length="13.23" shape="1967.68,916.94 1957.12,924.58"/>
    </edge>
    <edge id=":10723144880_0" function="internal">
        <lane id=":10723144880_0_0" index="0" disallow="tram rail_urban rail rail_electric rail_fast ship container cable_car subway aircraft wheelchair scooter drone" speed="27.78" length="5.54" shape="887.73,397.29 886.24,397.99 885.23,398.49 884.26,399.06 882.89,399.96"/>
    </edge>
    <edge id=":10723144880_1" function="internal">
        <lane id=":10723144880_1_0" index="0" disallow="tram rail_urban rail rail_electric rail_fast ship container cable_car subway aircraft wheelchair scooter drone" speed="27.78" length="6.01" shape="881.11,397.29 882.61,396.32 883.66,395.70 884.75,395.15 886.37,394.39"/>
    </edge>
    <edge id=":10727641887_0" function="internal">
        <lane id=":10727641887_0_0" index="0" disallow="tram rail_urban rail rail_electric rail_fast ship container cable_car subway aircraft wheelchair scooter drone" speed="22.22" length="4.78" shape="994.18,331.88 992.92,332.53 992.08,333.00 991.26,333.53 990.10,334.35"/>
    </edge>
    <edge id=":10727641888_0" function="internal">
        <lane id=":10727641888_0_0" index="0" disallow="tram rail_urban rail rail_electric rail_fast ship container cable_car subway aircraft wheelchair scooter drone" speed="27.78" length="4.58" shape="1018.01,317.71 1017.16,318.77 1016.54,319.47 1015.86,320.11 1014.84,321.00"/>
    </edge>
    <edge id=":10727641888_1" function="internal">
        <lane id=":10727641888_1_0" index="0" disallow="tram rail_urban rail rail_electric rail_fast ship container cable_car subway aircraft wheelchair scooter drone" speed="27.78" length="3.97" shape="1012.75,318.57 1013.64,317.80 1014.23,317.25 1014.76,316.64 1015.50,315.72"/>
    </edge>
    <edge id=":10727641895_0" function="internal">
        <lane id=":10727641895_0_0" index="0" disallow="tram rail_urban rail rail_electric rail_fast ship container cable_car subway aircraft wheelchair scooter drone" speed="5.56" length="5.50" shape="993.71,318.00 988.51,316.19"/>
    </edge>
    <edge id=":10727641895_1" function="internal">
        <lane id=":10727641895_1_0" index="0" disallow="tram rail_urban rail rail_electric rail_fast ship container cable_car subway aircraft wheelchair scooter drone" speed="5.56" length="5.66" shape="989.49,313.15 994.83,315.01"/>
    </edge>
    <edge id=":10727680733_0" function="internal">
        <lane id=":10727680733_0_0" index="0" allow="pedestrian bicycle" speed="3.22" length="3.70" width="2.00" shape="908.37,425.98 908.18,424.85 908.43,424.19 909.11,423.99 910.22,424.25"/>
    </edge>
    <edge id=":10727680771_0" function="internal">
        <lane id=":10727680771_0_0" index="0" disallow="tram rail_urban rail rail_electric rail_fast ship container cable_car subway aircraft wheelchair scooter drone" speed="27.78" length="8.54" shape="957.01,504.93 956.20,513.43"/>
    </edge>
    <edge id=":10727680771_1" function="internal">
        <lane id=":10727680771_1_0" index="0" disallow="tram rail_urban rail rail_electric rail_fast ship container cable_car subway aircraft wheelchair scooter drone" speed="8.27" length="3.94" shape="957.01,504.93 956.10,508.59 956.01,508.73"/>
    </edge>
    <edge id=":10727680771_2" function="internal">
        <lane id=":10727680771_2_0" index="0" disallow="tram rail_urban rail rail_electric rail_fast ship container cable_car subway aircraft wheelchair scooter drone" speed="3.65" length="1.44" shape="957.01,504.93 956.10,506.05"/>
    </edge>
    <edge id=":10727680771_9" function="internal">
        <lane id=":10727680771_9_0" index="0" disallow="tram rail_urban rail rail_electric rail_fast ship container cable_car subway aircraft wheelchair scooter drone" speed="8.27" length="10.37" shape="956.01,508.73 954.18,511.19 951.23,512.72 947.27,513.19"/>
    </edge>
    <edge id=":10727680771_10" function="internal">
        <lane id=":10727680771_10_0" index="0" disallow="tram rail_urban rail rail_electric rail_fast ship container cable_car subway aircraft wheelchair scooter drone" speed="3.65" length="3.23" shape="956.10,506.05 955.27,506.37 954.51,505.90 953.83,504.63"/>
    </edge>
    <edge id=":10727680771_3" function="internal">
        <lane id=":10727680771_3_0" index="0" disallow="tram rail_urban rail rail_electric rail_fast ship container cable_car subway aircraft wheelchair scooter drone" speed="6.83" length="9.45" shape="947.32,509.99 949.97,509.69 951.94,508.69 953.23,507.01 953.83,504.63"/>
    </edge>
    <edge id=":10727680771_4" function="internal">
        <lane id=":10727680771_4_0" index="0" disallow="tram rail_urban rail rail_electric rail_fast ship container cable_car subway aircraft wheelchair scooter drone" speed="6.74" length="10.36" shape="947.32,509.99 951.32,510.26 954.14,510.92 955.77,511.98 956.20,513.43"/>
    </edge>
    <edge id=":10727680771_5" function="internal">
        <lane id=":10727680771_5_0" index="0" disallow="tram rail_urban rail rail_electric rail_fast ship container cable_car subway aircraft wheelchair scooter drone" speed="2.78" length="4.67" shape="947.32,509.99 948.51,510.81 948.90,511.61 948.48,512.41 947.27,513.19"/>
    </edge>
    <edge id=":10727680771_6" function="internal">
        <lane id=":10727680771_6_0" index="0" disallow="tram rail_urban rail rail_electric rail_fast ship container cable_car subway aircraft wheelchair scooter drone" speed="5.26" length="5.88" shape="953.02,513.13 952.30,512.72 950.56,512.79 948.61,513.05 947.27,513.19"/>
    </edge>
    <edge id=":10727680771_7" function="internal">
        <lane id=":10727680771_7_0" index="0" disallow="tram rail_urban rail rail_electric rail_fast ship container cable_car subway aircraft wheelchair scooter drone" speed="27.78" length="8.54" shape="953.02,513.13 953.83,504.63"/>
    </edge>
    <edge id=":10727680771_8" function="internal">
        <lane id=":10727680771_8_0" index="0" disallow="tram rail_urban rail rail_electric rail_fast ship container cable_car subway aircraft wheelchair scooter drone" speed="3.65" length="1.44" shape="953.02,513.13 953.93,512.01"/>
    </edge>
    <edge id=":10727680771_11" function="internal">
        <lane id=":10727680771_11_0" index="0" disallow="tram rail_urban rail rail_electric rail_fast ship container cable_car subway aircraft wheelchair scooter drone" speed="3.65" length="3.23" shape="953.93,512.01 954.76,511.69 955.52,512.16 956.20,513.43"/>
    </edge>
    <edge id=":10727763935_0" function="internal">
        <lane id=":10727763935_0_0" index="0" disallow="tram rail_urban rail rail_electric rail_fast ship container cable_car subway aircraft wheelchair scooter drone" speed="27.78" length="0.30" shape="949.57,585.55 949.54,585.85"/>
    </edge>
    <edge id=":10727763935_1" function="internal">
        <lane id=":10727763935_1_0" index="0" disallow="tram rail_urban rail rail_electric rail_fast ship container cable_car subway aircraft wheelchair scooter drone" speed="27.78" length="0.30" shape="946.35,585.55 946.38,585.25"/>
    </edge>
    <edge id=":10727788729_0" function="internal">
        <lane id=":10727788729_0_0" index="0" disallow="tram rail_urban rail rail_electric rail_fast ship container cable_car subway aircraft wheelchair scooter drone" speed="5.56" length="0.30" shape="1045.06,386.41 1044.94,386.14"/>
    </edge>
    <edge id=":10727788729_1" function="internal">
        <lane id=":10727788729_1_0" index="0" disallow="tram rail_urban rail rail_electric rail_fast ship container cable_car subway aircraft wheelchair scooter drone" speed="5.56" length="0.30" shape="1047.84,384.79 1047.97,385.06"/>
    </edge>
    <edge id=":10727788751_0" function="internal">
        <lane id=":10727788751_0_0" index="0" disallow="tram rail_urban rail rail_electric rail_fast ship container cable_car subway aircraft wheelchair scooter drone" speed="13.89" length="6.91" shape="1091.51,540.71 1089.47,540.51 1088.08,540.30 1086.70,540.02 1084.69,539.61"/>
    </edge>
    <edge id=":10727788751_1" function="internal">
        <lane id=":10727788751_1_0" index="0" allow="pedestrian delivery bicycle" speed="6.12" length="1.87" shape="1091.51,540.71 1089.99,540.17 1089.84,539.97"/>
    </edge>
    <edge id=":10727788751_7" function="internal">
        <lane id=":10727788751_7_0" index="0" allow="pedestrian delivery bicycle" speed="6.12" length="6.42" shape="1089.84,539.97 1089.05,538.84 1088.69,536.73 1088.91,533.84"/>
    </edge>
    <edge id=":10727788751_2" function="internal">
        <lane id=":10727788751_2_0" index="0" allow="pedestrian delivery bicycle" speed="4.26" length="3.45" shape="1092.07,534.33 1091.82,535.23 1091.49,536.27 1091.38,537.13 1091.77,537.52"/>
    </edge>
    <edge id=":10727788751_3" function="internal">
        <lane id=":10727788751_3_0" index="0" allow="pedestrian delivery bicycle" speed="6.86" length="10.44" shape="1092.07,534.33 1091.23,537.10 1089.72,538.91 1087.54,539.74 1084.69,539.61"/>
    </edge>
    <edge id=":10727788751_4" function="internal">
        <lane id=":10727788751_4_0" index="0" allow="pedestrian delivery bicycle" speed="3.65" length="4.67" shape="1092.07,534.33 1091.09,535.39 1090.24,535.66 1089.51,535.15 1088.91,533.84"/>
    </edge>
    <edge id=":10727788751_5" function="internal">
        <lane id=":10727788751_5_0" index="0" allow="pedestrian delivery bicycle" speed="5.04" length="5.14" shape="1085.30,536.47 1086.69,536.53 1087.75,536.11 1088.49,535.21 1088.91,533.84"/>
    </edge>
    <edge id=":10727788751_6" function="internal">
        <lane id=":10727788751_6_0" index="0" disallow="tram rail_urban rail rail_electric rail_fast ship container cable_car subway aircraft wheelchair scooter drone" speed="13.89" length="6.56" shape="1085.30,536.47 1087.21,536.86 1088.52,537.13 1089.83,537.33 1091.77,537.52"/>
    </edge>
    <edge id=":10774662123_0" function="internal">
        <lane id=":10774662123_0_0" index="0" allow="pedestrian delivery bicycle" speed="3.65" length="4.67" shape="1091.39,517.80 1092.37,516.74 1093.22,516.47 1093.95,516.99 1094.55,518.29"/>
    </edge>
    <edge id=":10774662142_0" function="internal">
        <lane id=":10774662142_0_0" index="0" allow="pedestrian delivery bicycle" speed="5.56" length="8.55" shape="1076.06,456.10 1073.76,457.03 1072.37,458.05 1071.17,459.38 1069.41,461.23"/>
    </edge>
    <edge id=":10774662142_1" function="internal">
        <lane id=":10774662142_1_0" index="0" allow="pedestrian delivery bicycle" speed="5.56" length="10.27" shape="1076.06,456.10 1073.50,456.59 1071.04,456.40 1068.70,455.53 1066.47,453.99"/>
    </edge>
    <edge id=":10774662142_2" function="internal">
        <lane id=":10774662142_2_0" index="0" allow="pedestrian delivery bicycle" speed="3.65" length="4.67" shape="1076.06,456.10 1074.67,455.70 1074.04,455.06 1074.18,454.18 1075.07,453.05"/>
    </edge>
    <edge id=":10774662142_3" function="internal">
        <lane id=":10774662142_3_0" index="0" allow="pedestrian delivery bicycle" speed="5.56" length="8.30" shape="1067.50,450.65 1069.50,452.12 1071.42,453.01 1073.28,453.32 1075.07,453.05"/>
    </edge>
    <edge id=":10774662142_4" function="internal">
        <lane id=":10774662142_4_0" index="0" allow="pedestrian delivery bicycle" speed="5.56" length="12.46" shape="1067.50,450.65 1070.17,453.52 1071.39,456.24 1071.13,458.81 1069.41,461.23"/>
    </edge>
    <edge id=":10774662142_5" function="internal">
        <lane id=":10774662142_5_0" index="0" allow="pedestrian delivery bicycle" speed="3.76" length="5.11" shape="1067.50,450.65 1068.50,451.87 1068.66,452.83 1067.98,453.54 1066.47,453.99"/>
    </edge>
    <edge id=":10774662142_6" function="internal">
        <lane id=":10774662142_6_0" index="0" allow="pedestrian delivery bicycle" speed="5.20" length="5.78" shape="1067.20,458.91 1068.04,457.76 1068.20,456.56 1067.68,455.30 1066.47,453.99"/>
    </edge>
    <edge id=":10774662142_7" function="internal">
        <lane id=":10774662142_7_0" index="0" allow="pedestrian delivery bicycle" speed="5.56" length="9.99" shape="1067.20,458.91 1069.27,456.78 1070.71,455.27 1072.37,454.12 1075.07,453.05"/>
    </edge>
    <edge id=":10774662142_8" function="internal">
        <lane id=":10774662142_8_0" index="0" allow="pedestrian delivery bicycle" speed="3.65" length="4.67" shape="1067.20,458.91 1068.62,458.66 1069.46,458.97 1069.72,459.82 1069.41,461.23"/>
    </edge>
    <edge id=":10774662143_0" function="internal">
        <lane id=":10774662143_0_0" index="0" allow="pedestrian delivery bicycle" speed="3.65" length="4.67" shape="1067.62,462.93 1066.20,463.18 1065.36,462.87 1065.10,462.02 1065.42,460.61"/>
    </edge>
    <edge id=":10774662145_0" function="internal">
        <lane id=":10774662145_0_0" index="0" allow="pedestrian delivery bicycle" speed="5.56" length="0.54" shape="1065.40,453.07 1065.28,452.96 1065.19,452.90 1065.09,452.85 1064.95,452.79"/>
    </edge>
    <edge id=":10774662145_1" function="internal">
        <lane id=":10774662145_1_0" index="0" allow="pedestrian delivery bicycle" speed="5.56" length="1.40" shape="1066.12,449.81 1066.51,449.96 1066.77,450.08 1067.01,450.24 1067.33,450.50"/>
    </edge>
    <edge id=":10774675634_0" function="internal">
        <lane id=":10774675634_0_0" index="0" disallow="tram rail_urban rail rail_electric rail_fast ship container cable_car subway aircraft wheelchair scooter drone" speed="8.33" length="5.50" shape="2042.88,808.31 2043.83,806.99 2044.37,806.01 2044.75,804.95 2045.21,803.39"/>
    </edge>
    <edge id=":10807942775_0" function="internal">
        <lane id=":10807942775_0_0" index="0" disallow="tram rail_urban rail rail_electric rail_fast ship container cable_car subway aircraft wheelchair scooter drone" speed="27.78" length="1.89" shape="1173.56,1031.15 1173.39,1029.27"/>
    </edge>
    <edge id=":10807942775_1" function="internal">
        <lane id=":10807942775_1_0" index="0" disallow="tram rail_urban rail rail_electric rail_fast ship container cable_car subway aircraft wheelchair scooter drone" speed="27.78" length="1.89" shape="1176.57,1028.97 1176.75,1030.85"/>
    </edge>
    <edge id=":10807970142_0" function="internal">
        <lane id=":10807970142_0_0" index="0" disallow="tram rail_urban rail rail_electric rail_fast ship container cable_car subway aircraft wheelchair scooter drone" speed="6.42" length="9.04" shape="1062.83,882.29 1060.34,882.37 1058.51,883.24 1057.33,884.89 1056.81,887.33"/>
    </edge>
    <edge id=":10807970142_1" function="internal">
        <lane id=":10807970142_1_0" index="0" disallow="tram rail_urban rail rail_electric rail_fast ship container cable_car subway aircraft wheelchair scooter drone" speed="13.89" length="9.76" shape="1062.83,882.29 1053.14,881.11"/>
    </edge>
    <edge id=":10807970142_2" function="internal">
        <lane id=":10807970142_2_0" index="0" disallow="tram rail_urban rail rail_electric rail_fast ship container cable_car subway aircraft wheelchair scooter drone" speed="3.65" length="1.44" shape="1062.83,882.29 1061.72,881.36"/>
    </edge>
    <edge id=":10807970142_9" function="internal">
        <lane id=":10807970142_9_0" index="0" disallow="tram rail_urban rail rail_electric rail_fast ship container cable_car subway aircraft wheelchair scooter drone" speed="3.65" length="3.23" shape="1061.72,881.36 1061.41,880.52 1061.90,879.77 1063.18,879.11"/>
    </edge>
    <edge id=":10807970142_3" function="internal">
        <lane id=":10807970142_3_0" index="0" disallow="tram rail_urban rail rail_electric rail_fast ship container cable_car subway aircraft wheelchair scooter drone" speed="13.89" length="9.60" shape="1053.64,877.95 1063.18,879.11"/>
    </edge>
    <edge id=":10807970142_4" function="internal">
        <lane id=":10807970142_4_0" index="0" disallow="tram rail_urban rail rail_electric rail_fast ship container cable_car subway aircraft wheelchair scooter drone" speed="7.26" length="1.80" shape="1053.64,877.95 1055.25,878.76"/>
    </edge>
    <edge id=":10807970142_5" function="internal">
        <lane id=":10807970142_5_0" index="0" disallow="tram rail_urban rail rail_electric rail_fast ship container cable_car subway aircraft wheelchair scooter drone" speed="3.65" length="1.44" shape="1053.64,877.95 1054.70,878.93"/>
    </edge>
    <edge id=":10807970142_10" function="internal">
        <lane id=":10807970142_10_0" index="0" disallow="tram rail_urban rail rail_electric rail_fast ship container cable_car subway aircraft wheelchair scooter drone" speed="7.26" length="8.90" shape="1055.25,878.76 1056.32,880.59 1056.84,883.45 1056.81,887.33"/>
    </edge>
    <edge id=":10807970142_11" function="internal">
        <lane id=":10807970142_11_0" index="0" disallow="tram rail_urban rail rail_electric rail_fast ship container cable_car subway aircraft wheelchair scooter drone" speed="3.65" length="3.23" shape="1054.70,878.93 1054.97,879.78 1054.45,880.51 1053.14,881.11"/>
    </edge>
    <edge id=":10807970142_6" function="internal">
        <lane id=":10807970142_6_0" index="0" disallow="tram rail_urban rail rail_electric rail_fast ship container cable_car subway aircraft wheelchair scooter drone" speed="5.67" length="6.14" shape="1053.62,887.11 1053.71,885.77 1053.78,883.80 1053.64,881.97 1053.14,881.11"/>
    </edge>
    <edge id=":10807970142_7" function="internal">
        <lane id=":10807970142_7_0" index="0" disallow="tram rail_urban rail rail_electric rail_fast ship container cable_car subway aircraft wheelchair scooter drone" speed="7.93" length="14.35" shape="1053.62,887.11 1054.44,883.24 1056.31,880.62 1059.22,879.24 1063.18,879.11"/>
    </edge>
    <edge id=":10807970142_8" function="internal">
        <lane id=":10807970142_8_0" index="0" disallow="tram rail_urban rail rail_electric rail_fast ship container cable_car subway aircraft wheelchair scooter drone" speed="3.65" length="4.67" shape="1053.62,887.11 1054.50,885.97 1055.32,885.62 1056.10,886.08 1056.81,887.33"/>
    </edge>
    <edge id=":10807970143_0" function="internal">
        <lane id=":10807970143_0_0" index="0" disallow="tram rail_urban rail rail_electric rail_fast ship container cable_car subway aircraft wheelchair scooter drone" speed="6.49" length="9.03" shape="1077.11,724.90 1074.64,724.83 1072.74,725.57 1071.41,727.12 1070.66,729.48"/>
    </edge>
    <edge id=":10807970143_1" function="internal">
        <lane id=":10807970143_1_0" index="0" disallow="tram rail_urban rail rail_electric rail_fast ship container cable_car subway aircraft wheelchair scooter drone" speed="13.89" length="10.15" shape="1077.11,724.90 1067.11,723.16"/>
    </edge>
    <edge id=":10807970143_2" function="internal">
        <lane id=":10807970143_2_0" index="0" disallow="tram rail_urban rail rail_electric rail_fast ship container cable_car subway aircraft wheelchair scooter drone" speed="3.65" length="1.44" shape="1077.11,724.90 1076.07,723.91"/>
    </edge>
    <edge id=":10807970143_9" function="internal">
        <lane id=":10807970143_9_0" index="0" disallow="tram rail_urban rail rail_electric rail_fast ship container cable_car subway aircraft wheelchair scooter drone" speed="3.65" length="3.23" shape="1076.07,723.91 1075.81,723.05 1076.34,722.33 1077.66,721.75"/>
    </edge>
    <edge id=":10807970143_3" function="internal">
        <lane id=":10807970143_3_0" index="0" disallow="tram rail_urban rail rail_electric rail_fast ship container cable_car subway aircraft wheelchair scooter drone" speed="13.89" length="10.15" shape="1067.66,720.01 1077.66,721.75"/>
    </edge>
    <edge id=":10807970143_4" function="internal">
        <lane id=":10807970143_4_0" index="0" disallow="tram rail_urban rail rail_electric rail_fast ship container cable_car subway aircraft wheelchair scooter drone" speed="7.13" length="2.06" shape="1067.66,720.01 1069.51,720.89"/>
    </edge>